#	Name: ASD01410833
#	Creating user name:	WinNT
#	Creation time:	15. 06. 2019 19:18

#	Modifying user name:	WinNT
#	Modification time:	15. 06. 2019 19:18

#	Program:	/corina/corina34_cracker 3.40 0067  02.08.2006

@<TRIPOS>MOLECULE
ASD01410833
  48   50    0    0    0
SMALL
NO_CHARGES


@<TRIPOS>ATOM
   1 C1             0.0631     1.2646    -0.8174 C.ar    
   2 C2             0.0413    -0.0932    -1.1476 C.ar    
   3 C3            -1.1293    -0.7174    -1.4529 C.ar    
   4 C4            -2.3313     0.0046    -1.4373 C.ar    
   5 C5            -2.3219     1.3809    -1.1038 C.ar    
   6 C6            -1.1007     2.0005    -0.7880 C.ar    
   7 O7             1.2448     1.8640    -0.5166 O.3     
   8 C8             2.4161     1.0465    -0.5588 C.3     
   9 C9             3.6397     1.8894    -0.1938 C.3     
  10 O10            3.7743     2.9630    -1.1273 O.3     
  11 O11            3.4767     2.4206     1.1228 O.3     
  12 C12            4.7017     2.8050     1.7502 C.3     
  13 C13            5.0497     3.6065    -1.0931 C.3     
  14 Cl14          -1.0578     3.6862    -0.3753 Cl      
  15 N15           -3.4665     2.0732    -1.0888 N.ar    
  16 C16           -3.5624    -0.6183    -1.7508 C.ar    
  17 O17           -3.6140    -1.9342    -2.0749 O.3     
  18 C18           -4.7008     0.1428    -1.7179 C.ar    
  19 C19           -4.6211     1.5001    -1.3805 C.ar    
  20 C20           -5.8598     2.3115    -1.3487 C.2     
  21 C21           -5.8709     3.6240    -1.0333 C.2     
  22 N22           -7.0559     1.8146    -1.6329 N.2     
  23 C23           -8.0568     2.6216    -1.5707 C.2     
  24 S24           -7.5383     4.1863    -1.1194 S.3     
  25 C25           -9.4861     2.2405    -1.8587 C.3     
  26 C26          -10.3416     2.4926    -0.6155 C.3     
  27 C27          -10.0145     3.0837    -3.0209 C.3     
  28 H28            0.9642    -0.6539    -1.1610 H       
  29 H29           -1.1321    -1.7671    -1.7070 H       
  30 H30            2.3135     0.2276     0.1533 H       
  31 H31            2.5405     0.6413    -1.5630 H       
  32 H32            4.5332     1.2659    -0.2259 H       
  33 H33            4.5135     3.0483     2.7959 H       
  34 H34            5.4140     1.9821     1.6912 H       
  35 H35            5.1119     3.6778     1.2422 H       
  36 H36            5.8303     2.8589    -0.9521 H       
  37 H37            5.2164     4.1330    -2.0329 H       
  38 H38            5.0754     4.3186    -0.2682 H       
  39 H39           -3.7420    -2.5211    -1.3172 H       
  40 H40           -5.6567    -0.3018    -1.9522 H       
  41 H41           -5.0105     4.2229    -0.7736 H       
  42 H42           -9.5341     1.1845    -2.1246 H       
  43 H43           -9.9651     1.8919     0.2125 H       
  44 H44          -10.2936     3.5486    -0.3495 H       
  45 H45          -11.3754     2.2170    -0.8237 H       
  46 H46           -9.4051     2.9040    -3.9066 H       
  47 H47          -11.0483     2.8080    -3.2292 H       
  48 H48           -9.9666     4.1396    -2.7549 H       
@<TRIPOS>BOND
   1    1    2 ar
   2    1    7 1
   3    1    6 ar
   4    2    3 ar
   5    2   28 1
   6    3    4 ar
   7    3   29 1
   8    4    5 ar
   9    4   16 ar
  10    5    6 ar
  11    5   15 ar
  12    6   14 1
  13    7    8 1
  14    8    9 1
  15    8   30 1
  16    8   31 1
  17    9   10 1
  18    9   11 1
  19    9   32 1
  20   10   13 1
  21   11   12 1
  22   12   33 1
  23   12   34 1
  24   12   35 1
  25   13   36 1
  26   13   37 1
  27   13   38 1
  28   15   19 ar
  29   16   17 1
  30   16   18 ar
  31   17   39 1
  32   18   19 ar
  33   18   40 1
  34   19   20 1
  35   20   21 2
  36   20   22 1
  37   21   24 1
  38   21   41 1
  39   22   23 2
  40   23   24 1
  41   23   25 1
  42   25   26 1
  43   25   27 1
  44   25   42 1
  45   26   43 1
  46   26   44 1
  47   26   45 1
  48   27   46 1
  49   27   47 1
  50   27   48 1

#	End of record

