#	Name: ASD03090823
#	Creating user name:	WinNT
#	Creation time:	15. 06. 2019 20:29

#	Modifying user name:	WinNT
#	Modification time:	15. 06. 2019 20:29

#	Program:	/corina/corina34_cracker 3.40 0067  02.08.2006

@<TRIPOS>MOLECULE
ASD03090823
  43   46    0    0    0
SMALL
NO_CHARGES


@<TRIPOS>ATOM
   1 N1            -0.0190     1.4664    -0.0881 N.am    
   2 C2             0.0007    -0.0024    -0.1204 C.3     
   3 C3             0.8411    -0.4581    -1.3175 C.3     
   4 C4             2.2264     0.1875    -1.2384 C.3     
   5 C5             2.0857     1.7102    -1.2987 C.3     
   6 C6             1.2594     2.1904    -0.1014 C.3     
   7 C7            -1.1876     2.1369    -0.0527 C.2     
   8 O8            -2.2415     1.5247    -0.0471 O.2     
   9 N9            -1.1907     3.4726    -0.0236 N.2     
  10 S10           -3.9293     3.4605     0.0257 S.3     
  11 C11           -2.3448     4.1347     0.0115 C.2     
  12 N12           -2.5158     5.4805     0.0438 N.pl3   
  13 C13           -3.7978     5.9381     0.0771 C.2     
  14 C14           -4.7598     5.0250     0.0748 C.2     
  15 C15           -6.2469     5.2673     0.1076 C.3     
  16 O16            1.6190     9.1380     0.0223 O.3     
  17 C17            0.8320    10.3054     0.3236 C.3     
  18 O18           -0.4875     9.9562    -0.1348 O.3     
  19 C19           -0.5538     8.5952    -0.0528 C.ar    
  20 C20            0.7417     8.0914     0.0438 C.ar    
  21 C21           -1.6330     7.7282    -0.0529 C.ar    
  22 C22           -1.4230     6.3590     0.0434 C.ar    
  23 C23           -0.1314     5.8601     0.1398 C.ar    
  24 C24            0.9467     6.7248     0.1405 C.ar    
  25 F25            0.8248    10.5514     1.7008 F       
  26 F26            1.3160    11.4178    -0.3732 F       
  27 H27            0.4415    -0.3823     0.8013 H       
  28 H28           -1.0169    -0.3793    -0.2237 H       
  29 H29            0.9436    -1.5431    -1.2980 H       
  30 H30            0.3508    -0.1550    -2.2426 H       
  31 H31            2.7062    -0.0961    -0.3016 H       
  32 H32            2.8347    -0.1544    -2.0758 H       
  33 H33            3.0741     2.1685    -1.2658 H       
  34 H34            1.5837     1.9928    -2.2240 H       
  35 H35            1.0724     3.2604    -0.1921 H       
  36 H36            1.8029     1.9894     0.8218 H       
  37 H37           -4.0207     6.9945     0.1041 H       
  38 H38           -6.7710     4.3116     0.0972 H       
  39 H39           -6.5060     5.8139     1.0143 H       
  40 H40           -6.5392     5.8515    -0.7649 H       
  41 H41           -2.6380     8.1166    -0.1274 H       
  42 H42            0.0313     4.7951     0.2147 H       
  43 H43            1.9509     6.3343     0.2150 H       
@<TRIPOS>BOND
   1    1    2 1
   2    1    6 1
   3    1    7 am
   4    2    3 1
   5    2   27 1
   6    2   28 1
   7    3    4 1
   8    3   29 1
   9    3   30 1
  10    4    5 1
  11    4   31 1
  12    4   32 1
  13    5    6 1
  14    5   33 1
  15    5   34 1
  16    6   35 1
  17    6   36 1
  18    7    8 2
  19    7    9 1
  20    9   11 2
  21   10   11 1
  22   10   14 1
  23   11   12 1
  24   12   13 1
  25   12   22 1
  26   13   14 2
  27   13   37 1
  28   14   15 1
  29   15   38 1
  30   15   39 1
  31   15   40 1
  32   16   17 1
  33   16   20 1
  34   17   18 1
  35   17   25 1
  36   17   26 1
  37   18   19 1
  38   19   20 ar
  39   19   21 ar
  40   20   24 ar
  41   21   22 ar
  42   21   41 1
  43   22   23 ar
  44   23   24 ar
  45   23   42 1
  46   24   43 1

#	End of record

