#	Name: ASD01880237
#	Creating user name:	WinNT
#	Creation time:	15. 06. 2019 19:40

#	Modifying user name:	WinNT
#	Modification time:	15. 06. 2019 19:40

#	Program:	/corina/corina34_cracker 3.40 0067  02.08.2006

@<TRIPOS>MOLECULE
ASD01880237
  37   39    0    0    0
SMALL
NO_CHARGES


@<TRIPOS>ATOM
   1 C1            -0.0184     1.5028     0.0103 C.3     
   2 C2             0.0021    -0.0041     0.0020 C.ar    
   3 C3             0.0229    -0.6995     1.1975 C.ar    
   4 C4             0.0416    -2.0795     1.1958 C.ar    
   5 C5             0.0396    -2.7722    -0.0132 C.ar    
   6 C6             0.0186    -2.0666    -1.2146 C.ar    
   7 C7            -0.0057    -0.6867    -1.2010 C.ar    
   8 C8             0.0602    -4.2559    -0.0214 C.ar    
   9 N9             1.3560     2.0099    -0.0001 N.am    
  10 C10            2.1471     2.3124    -1.2027 C.3     
  11 C11            3.4948     2.8051    -0.6411 C.3     
  12 O12            3.3236     2.7294     0.8038 O.3     
  13 C13            2.0955     2.2792     1.0845 C.2     
  14 C14            3.7612     4.2480    -1.0747 C.3     
  15 O15            1.6905     2.1211     2.2191 O.2     
  16 C16            0.0582    -4.9478    -1.2306 C.ar    
  17 C17            0.0774    -6.3287    -1.2334 C.ar    
  18 C18            0.0986    -7.0256    -0.0351 C.ar    
  19 C19            0.1003    -6.3405     1.1690 C.ar    
  20 C20            0.0874    -4.9609     1.1805 C.ar    
  21 F21            0.1174    -8.3764    -0.0416 F       
  22 Cl22           0.0743    -7.1928    -2.7390 Cl      
  23 H23           -0.5455     1.8639    -0.8728 H       
  24 H24           -0.5286     1.8543     0.9071 H       
  25 H25            0.0248    -0.1616     2.1340 H       
  26 H26            0.0582    -2.6215     2.1299 H       
  27 H27            0.0169    -2.5985    -2.1545 H       
  28 H28           -0.0224    -0.1387    -2.1315 H       
  29 H29            2.2883     1.4143    -1.8041 H       
  30 H30            1.6675     3.0958    -1.7895 H       
  31 H31            4.3053     2.1520    -0.9646 H       
  32 H32            2.9654     4.8924    -0.7013 H       
  33 H33            4.7172     4.5787    -0.6688 H       
  34 H34            3.7909     4.3007    -2.1631 H       
  35 H35            0.0413    -4.4052    -2.1643 H       
  36 H36            0.1165    -6.8873     2.1003 H       
  37 H37            0.0891    -4.4281     2.1199 H       
@<TRIPOS>BOND
   1    1    2 1
   2    1    9 1
   3    1   23 1
   4    1   24 1
   5    2    3 ar
   6    2    7 ar
   7    3    4 ar
   8    3   25 1
   9    4    5 ar
  10    4   26 1
  11    5    6 ar
  12    5    8 1
  13    6    7 ar
  14    6   27 1
  15    7   28 1
  16    8   16 ar
  17    8   20 ar
  18    9   10 1
  19    9   13 am
  20   10   11 1
  21   10   29 1
  22   10   30 1
  23   11   12 1
  24   11   14 1
  25   11   31 1
  26   12   13 1
  27   13   15 2
  28   14   32 1
  29   14   33 1
  30   14   34 1
  31   16   17 ar
  32   16   35 1
  33   17   18 ar
  34   17   22 1
  35   18   19 ar
  36   18   21 1
  37   19   20 ar
  38   19   36 1
  39   20   37 1

#	End of record

