#	Name: ASD01140442
#	Creating user name:	WinNT
#	Creation time:	15. 06. 2019 19:00

#	Modifying user name:	WinNT
#	Modification time:	15. 06. 2019 19:00

#	Program:	/corina/corina34_cracker 3.40 0067  02.08.2006

@<TRIPOS>MOLECULE
ASD01140442
  44   46    0    0    0
SMALL
NO_CHARGES


@<TRIPOS>ATOM
   1 C1            -0.1032     1.5607    -0.1839 C.2     
   2 C2            -0.2108     0.2066    -0.1170 C.2     
   3 C3             0.9446    -0.5764     0.0417 C.2     
   4 C4             2.1574     0.0090     0.1278 C.2     
   5 C5             1.1708     2.1581    -0.0925 C.2     
   6 N6             1.5632     3.4229    -0.1262 N.2     
   7 N7             2.2804     1.3672     0.0626 N.pl3   
   8 C8             3.3641     2.1978     0.1224 C.2     
   9 C9             2.8985     3.4724     0.0026 C.2     
  10 C10            3.7256     4.7045     0.0139 C.ar    
  11 C11            4.9332     4.7425    -0.6801 C.ar    
  12 C12            5.6984     5.8910    -0.6661 C.ar    
  13 C13            5.2687     7.0029     0.0355 C.ar    
  14 C14            4.0707     6.9707     0.7263 C.ar    
  15 C15            3.2946     5.8295     0.7140 C.ar    
  16 C16            4.8031     1.7819     0.2880 C.3     
  17 C17            5.3827     1.4314    -1.0582 C.2     
  18 N18            6.6653     1.0289    -1.1556 N.am    
  19 O19            4.6950     1.5113    -2.0540 O.2     
  20 C20            7.2288     0.6881    -2.4642 C.3     
  21 C21            7.4960     0.9323     0.0473 C.3     
  22 C22            0.8292    -2.0771     0.1168 C.3     
  23 F23            0.5510    -2.4582     1.4338 F       
  24 F24           -0.2047    -2.5078    -0.7216 F       
  25 F25            2.0341    -2.6586    -0.2923 F       
  26 C26            6.1091     8.2538     0.0479 C.3     
  27 F27            5.7387     9.0750    -1.0224 F       
  28 F28            5.9092     8.9380     1.2517 F       
  29 F29            7.4596     7.9095    -0.0741 F       
  30 H30           -0.9845     2.1722    -0.3103 H       
  31 H31           -1.1802    -0.2646    -0.1852 H       
  32 H32            3.0391    -0.6027     0.2497 H       
  33 H33            5.2700     3.8746    -1.2277 H       
  34 H34            6.6346     5.9215    -1.2037 H       
  35 H35            3.7399     7.8417     1.2725 H       
  36 H36            2.3570     5.8071     1.2496 H       
  37 H37            5.3707     2.6034     0.7252 H       
  38 H38            4.8571     0.9133     0.9442 H       
  39 H39            7.6651     1.5794    -2.9152 H       
  40 H40            8.0006    -0.0716    -2.3408 H       
  41 H41            6.4399     0.3030    -3.1103 H       
  42 H42            7.0488     0.2209     0.7415 H       
  43 H43            8.4949     0.5932    -0.2273 H       
  44 H44            7.5625     1.9110     0.5225 H       
@<TRIPOS>BOND
   1    1    2 2
   2    1    5 1
   3    1   30 1
   4    2    3 1
   5    2   31 1
   6    3    4 2
   7    3   22 1
   8    4    7 1
   9    4   32 1
  10    5    7 1
  11    5    6 2
  12    6    9 1
  13    7    8 1
  14    8    9 2
  15    8   16 1
  16    9   10 1
  17   10   11 ar
  18   10   15 ar
  19   11   12 ar
  20   11   33 1
  21   12   13 ar
  22   12   34 1
  23   13   14 ar
  24   13   26 1
  25   14   15 ar
  26   14   35 1
  27   15   36 1
  28   16   17 1
  29   16   37 1
  30   16   38 1
  31   17   18 am
  32   17   19 2
  33   18   20 1
  34   18   21 1
  35   20   39 1
  36   20   40 1
  37   20   41 1
  38   21   42 1
  39   21   43 1
  40   21   44 1
  41   22   23 1
  42   22   24 1
  43   22   25 1
  44   26   27 1
  45   26   28 1
  46   26   29 1

#	End of record

