#	Name: ASD05250091
#	Creating user name:	WinNT
#	Creation time:	15. 06. 2019 20:58

#	Modifying user name:	WinNT
#	Modification time:	15. 06. 2019 20:58

#	Program:	/corina/corina34_cracker 3.40 0067  02.08.2006

@<TRIPOS>MOLECULE
ASD05250091
  34   35    0    0    0
SMALL
NO_CHARGES


@<TRIPOS>ATOM
   1 C1            -0.0167     1.3834     0.0096 C.ar    
   2 C2             0.0021    -0.0041     0.0020 C.ar    
   3 C3            -1.1874    -0.7187     0.0095 C.ar    
   4 C4            -2.3996    -0.0497     0.0247 C.ar    
   5 C5            -2.4238     1.3468     0.0324 C.ar    
   6 C6            -1.2238     2.0616     0.0306 C.ar    
   7 C7            -3.7116     2.0640     0.0481 C.2     
   8 C8            -3.7323     3.4061     0.0555 C.2     
   9 C9            -5.0200     4.1232     0.0711 C.ar    
  10 C10           -5.0455     5.5203     0.0788 C.ar    
  11 C11           -6.2542     6.1844     0.0930 C.ar    
  12 C12           -7.4397     5.4707     0.0999 C.ar    
  13 C13           -7.4222     4.0870     0.0928 C.ar    
  14 C14           -6.2212     3.4092     0.0724 C.ar    
  15 O15            1.1515     2.0778     0.0022 O.3     
  16 O16           -1.1625    -2.0775     0.0015 O.3     
  17 C17           -8.7562     6.2038     0.1159 C.3     
  18 C18           -9.2149     6.4597    -1.3211 C.3     
  19 H19            0.9456    -0.5295    -0.0102 H       
  20 H20           -3.3248    -0.6067     0.0302 H       
  21 H21           -1.2374     3.1415     0.0365 H       
  22 H22           -4.6384     1.5095     0.0535 H       
  23 H23           -2.8055     3.9606     0.0500 H       
  24 H24           -4.1211     6.0786     0.0741 H       
  25 H25           -6.2755     7.2642     0.0990 H       
  26 H26           -8.3514     3.5365     0.0990 H       
  27 H27           -6.2090     2.3293     0.0668 H       
  28 H28            1.4812     2.2835    -0.8833 H       
  29 H29           -1.1467    -2.4758     0.8826 H       
  30 H30           -9.5020     5.6003     0.6333 H       
  31 H31           -8.6360     7.1554     0.6338 H       
  32 H32           -8.4692     7.0632    -1.8386 H       
  33 H33           -9.3352     5.5081    -1.8390 H       
  34 H34          -10.1672     6.9900    -1.3096 H       
@<TRIPOS>BOND
   1    1    2 ar
   2    1   15 1
   3    1    6 ar
   4    2    3 ar
   5    2   19 1
   6    3    4 ar
   7    3   16 1
   8    4    5 ar
   9    4   20 1
  10    5    6 ar
  11    5    7 1
  12    6   21 1
  13    7    8 2
  14    7   22 1
  15    8    9 1
  16    8   23 1
  17    9   10 ar
  18    9   14 ar
  19   10   11 ar
  20   10   24 1
  21   11   12 ar
  22   11   25 1
  23   12   13 ar
  24   12   17 1
  25   13   14 ar
  26   13   26 1
  27   14   27 1
  28   15   28 1
  29   16   29 1
  30   17   18 1
  31   17   30 1
  32   17   31 1
  33   18   32 1
  34   18   33 1
  35   18   34 1

#	End of record

