#	Name: ASD02508319
#	Creating user name:	WinNT
#	Creation time:	15. 06. 2019 20:24

#	Modifying user name:	WinNT
#	Modification time:	15. 06. 2019 20:24

#	Program:	/corina/corina34_cracker 3.40 0067  02.08.2006

@<TRIPOS>MOLECULE
ASD02508319
  38   39    0    0    0
SMALL
NO_CHARGES


@<TRIPOS>ATOM
   1 C1            -0.0168     1.3859     0.0097 C.ar    
   2 C2             0.0021    -0.0041     0.0020 C.ar    
   3 C3            -1.1927    -0.7114     0.0101 C.ar    
   4 C4            -2.3958    -0.0324     0.0257 C.ar    
   5 C5            -2.4114     1.3500     0.0333 C.ar    
   6 C6            -1.2234     2.0583     0.0306 C.ar    
   7 S7            -3.9483     2.2115     0.0532 S.o2    
   8 O8            -3.6926     3.5008    -0.4869 O.2     
   9 O9            -4.9148     1.3205    -0.4864 O.2     
  10 C10           -4.3865     2.4575     1.7420 C.ar    
  11 C11           -3.9730     3.5983     2.4043 C.ar    
  12 C12           -4.3167     3.7913     3.7292 C.ar    
  13 C13           -5.0743     2.8437     4.3918 C.ar    
  14 C14           -5.4886     1.7034     3.7293 C.ar    
  15 C15           -5.1485     1.5124     2.4031 C.ar    
  16 N16            1.2205    -0.6878    -0.0142 N.am    
  17 C17            1.7921    -1.1359    -1.2865 C.3     
  18 S18            2.0185    -0.9916     1.4047 S.o2    
  19 C19            1.3818    -2.6016     1.9463 C.3     
  20 O20            3.3833    -1.0977     1.0234 O.2     
  21 O21            1.5804     0.0381     2.2805 O.2     
  22 Br22           1.6071     2.3548    -0.0006 Br      
  23 C23            2.5617    -0.0372    -1.8927 C.1     
  24 C24            3.1755     0.8390    -2.3761 C.1     
  25 H25           -1.1816    -1.7913     0.0038 H       
  26 H26           -3.3253    -0.5823     0.0317 H       
  27 H27           -1.2391     3.1382     0.0368 H       
  28 H28           -3.3811     4.3386     1.8866 H       
  29 H29           -3.9931     4.6822     4.2468 H       
  30 H30           -5.3423     2.9941     5.4272 H       
  31 H31           -6.0802     0.9629     4.2470 H       
  32 H32           -5.4721     0.6215     1.8855 H       
  33 H33            2.4506    -1.9863    -1.1096 H       
  34 H34            0.9890    -1.4324    -1.9613 H       
  35 H35            1.4663    -3.3189     1.1300 H       
  36 H36            1.9613    -2.9528     2.8001 H       
  37 H37            0.3354    -2.5003     2.2342 H       
  38 H38            3.7245     1.6227    -2.8085 H       
@<TRIPOS>BOND
   1    1    2 ar
   2    1   22 1
   3    1    6 ar
   4    2    3 ar
   5    2   16 1
   6    3    4 ar
   7    3   25 1
   8    4    5 ar
   9    4   26 1
  10    5    6 ar
  11    5    7 1
  12    6   27 1
  13    7    8 2
  14    7    9 2
  15    7   10 1
  16   10   11 ar
  17   10   15 ar
  18   11   12 ar
  19   11   28 1
  20   12   13 ar
  21   12   29 1
  22   13   14 ar
  23   13   30 1
  24   14   15 ar
  25   14   31 1
  26   15   32 1
  27   16   17 1
  28   16   18 am
  29   17   23 1
  30   17   33 1
  31   17   34 1
  32   18   19 1
  33   18   20 2
  34   18   21 2
  35   19   35 1
  36   19   36 1
  37   19   37 1
  38   23   24 3
  39   24   38 1

#	End of record

