#	Name: ASD00460042
#	Creating user name:	WinNT
#	Creation time:	15. 06. 2019 18:36

#	Modifying user name:	WinNT
#	Modification time:	15. 06. 2019 18:36

#	Program:	/corina/corina34_cracker 3.40 0067  02.08.2006

@<TRIPOS>MOLECULE
ASD00460042
  53   55    0    0    0
SMALL
NO_CHARGES


@<TRIPOS>ATOM
   1 C1            -0.1955     1.4298     0.0562 C.ar    
   2 C2            -0.0685     0.0573    -0.0194 C.ar    
   3 C3            -1.2933    -0.8161     0.0705 C.3     
   4 N4            -1.1767    -1.9231    -0.8882 N.3     
   5 C5            -2.5018    -2.4188    -1.2835 C.3     
   6 C6            -3.0573    -1.5476    -2.3806 C.ar    
   7 C7            -4.3975    -1.2088    -2.3823 C.ar    
   8 C8            -4.9070    -0.4097    -3.3886 C.ar    
   9 C9            -4.0763     0.0510    -4.3929 C.ar    
  10 C10           -2.7360    -0.2871    -4.3907 C.ar    
  11 C11           -2.2255    -1.0827    -3.3820 C.ar    
  12 C12           -2.3782    -3.8579    -1.7883 C.3     
  13 C13            1.1791    -0.5192    -0.1779 C.ar    
  14 C14            2.3082     0.2736    -0.2619 C.ar    
  15 C15            2.1952     1.6524    -0.1874 C.ar    
  16 C16            0.9355     2.2380    -0.0272 C.ar    
  17 C17            0.8046     3.7133     0.0530 C.ar    
  18 C18            1.6079     4.4402     0.9300 C.ar    
  19 C19           -0.1179     4.3783    -0.7522 C.ar    
  20 C20           -0.2352     5.7514    -0.6737 C.ar    
  21 C21            0.5612     6.4671     0.2017 C.ar    
  22 C22            1.4822     5.8126     1.0001 C.ar    
  23 C23           -1.4150    -1.3795     1.4878 C.3     
  24 O24            3.3042     2.4326    -0.2693 O.3     
  25 C25            4.5569     1.7645    -0.4321 C.3     
  26 C26            2.3463     6.5994     1.9516 C.3     
  27 F27            2.0360     7.9595     1.8472 F       
  28 F28            2.1117     6.1667     3.2611 F       
  29 F29            3.6934     6.4023     1.6296 F       
  30 H30           -1.1715     1.8766     0.1755 H       
  31 H31           -2.1789    -0.2251    -0.1629 H       
  32 H32           -0.6382    -1.6471    -1.6956 H       
  33 H33           -3.1713    -2.3916    -0.4238 H       
  34 H34           -5.0465    -1.5687    -1.5977 H       
  35 H35           -5.9542    -0.1455    -3.3904 H       
  36 H36           -4.4746     0.6747    -5.1795 H       
  37 H37           -2.0870     0.0725    -5.1755 H       
  38 H38           -1.1783    -1.3468    -3.3802 H       
  39 H39           -2.0565    -4.5033    -0.9710 H       
  40 H40           -3.3452    -4.1969    -2.1599 H       
  41 H41           -1.6449    -3.8987    -2.5938 H       
  42 H42            1.2712    -1.5937    -0.2360 H       
  43 H43            3.2795    -0.1822    -0.3852 H       
  44 H44            2.3272     3.9303     1.5537 H       
  45 H45           -0.7398     3.8205    -1.4367 H       
  46 H46           -0.9499     6.2679    -1.2973 H       
  47 H47            0.4666     7.5414     0.2594 H       
  48 H48           -1.4094    -0.5599     2.2063 H       
  49 H49           -2.3478    -1.9360     1.5787 H       
  50 H50           -0.5745    -2.0440     1.6880 H       
  51 H51            4.5406     1.1811    -1.3526 H       
  52 H52            5.3580     2.5019    -0.4834 H       
  53 H53            4.7276     1.1009     0.4157 H       
@<TRIPOS>BOND
   1    1    2 ar
   2    1   16 ar
   3    1   30 1
   4    2    3 1
   5    2   13 ar
   6    3    4 1
   7    3   23 1
   8    3   31 1
   9    4    5 1
  10    4   32 1
  11    5    6 1
  12    5   12 1
  13    5   33 1
  14    6    7 ar
  15    6   11 ar
  16    7    8 ar
  17    7   34 1
  18    8    9 ar
  19    8   35 1
  20    9   10 ar
  21    9   36 1
  22   10   11 ar
  23   10   37 1
  24   11   38 1
  25   12   39 1
  26   12   40 1
  27   12   41 1
  28   13   14 ar
  29   13   42 1
  30   14   15 ar
  31   14   43 1
  32   15   24 1
  33   15   16 ar
  34   16   17 1
  35   17   18 ar
  36   17   19 ar
  37   18   22 ar
  38   18   44 1
  39   19   20 ar
  40   19   45 1
  41   20   21 ar
  42   20   46 1
  43   21   22 ar
  44   21   47 1
  45   22   26 1
  46   23   48 1
  47   23   49 1
  48   23   50 1
  49   24   25 1
  50   25   51 1
  51   25   52 1
  52   25   53 1
  53   26   27 1
  54   26   28 1
  55   26   29 1

#	End of record

