#	Name: ASD01915811
#	Creating user name:	WinNT
#	Creation time:	15. 06. 2019 20:06

#	Modifying user name:	WinNT
#	Modification time:	15. 06. 2019 20:06

#	Program:	/corina/corina34_cracker 3.40 0067  02.08.2006

@<TRIPOS>MOLECULE
ASD01915811
  48   51    0    0    0
SMALL
NO_CHARGES


@<TRIPOS>ATOM
   1 C1            -0.8414    -0.1611     0.3801 C.2     
   2 N2            -0.5237    -1.5009     0.3780 N.pl3   
   3 C3            -1.5697    -2.5299     0.4171 C.3     
   4 C4            -2.7814    -1.9899     1.1749 C.3     
   5 N5            -3.1646    -0.6512     0.7400 N.am    
   6 C6            -2.2368     0.2964     0.4625 C.2     
   7 C7             0.3358     0.5292     0.3101 C.2     
   8 C8             1.3325    -0.4554     0.2800 C.2     
   9 N9             0.7446    -1.6281     0.3285 N.2     
  10 C10            2.8177    -0.2111     0.2053 C.3     
  11 O11            3.0678     1.1954     0.1688 O.3     
  12 C12            4.3645     1.5889     0.1003 C.ar    
  13 O13           -2.5411     1.4616     0.2909 O.2     
  14 C14            4.6697     2.9404     0.0621 C.ar    
  15 N15            5.3248     0.6781     0.0761 N.ar    
  16 C16            6.6008     1.0127     0.0099 C.ar    
  17 C17            6.9841     2.3350    -0.0369 C.ar    
  18 C18            6.0044     3.3296    -0.0080 C.ar    
  19 C19           -4.5221    -0.3385     0.6063 C.ar    
  20 C20           -5.0112     0.1323    -0.6052 C.ar    
  21 C21           -5.3831    -0.5039     1.6833 C.ar    
  22 C22           -6.7225    -0.1951     1.5490 C.ar    
  23 C23           -7.2071     0.2792     0.3416 C.ar    
  24 C24           -6.3513     0.4399    -0.7351 C.ar    
  25 F25           -8.5177     0.5807     0.2124 F       
  26 N26            6.3533     4.6763    -0.0541 N.pl3   
  27 C27            7.7635     5.0698    -0.0011 C.3     
  28 C28            5.3104     5.7002    -0.1555 C.3     
  29 H29           -1.8629    -2.7895    -0.6001 H       
  30 H30           -1.1891    -3.4166     0.9241 H       
  31 H31           -3.6231    -2.6650     1.0201 H       
  32 H32           -2.5470    -1.9609     2.2390 H       
  33 H33            0.4690     1.6006     0.2832 H       
  34 H34            3.3016    -0.6435     1.0810 H       
  35 H35            3.2172    -0.6747    -0.6967 H       
  36 H36            3.8836     3.6806     0.0861 H       
  37 H37            7.3540     0.2389    -0.0074 H       
  38 H38            8.0299     2.5993    -0.0906 H       
  39 H39           -4.3440     0.2582    -1.4451 H       
  40 H40           -5.0057    -0.8741     2.6250 H       
  41 H41           -7.3926    -0.3240     2.3862 H       
  42 H42           -6.7312     0.8100    -1.6759 H       
  43 H43            8.1653     5.1188    -1.0132 H       
  44 H44            7.8502     6.0479     0.4720 H       
  45 H45            8.3242     4.3354     0.5772 H       
  46 H46            4.3401     5.2194    -0.2799 H       
  47 H47            5.3035     6.3030     0.7526 H       
  48 H48            5.5117     6.3399    -1.0148 H       
@<TRIPOS>BOND
   1    1    2 1
   2    1    7 2
   3    1    6 1
   4    2    3 1
   5    2    9 1
   6    3    4 1
   7    3   29 1
   8    3   30 1
   9    4    5 1
  10    4   31 1
  11    4   32 1
  12    5    6 am
  13    5   19 1
  14    6   13 2
  15    7    8 1
  16    7   33 1
  17    8    9 2
  18    8   10 1
  19   10   11 1
  20   10   34 1
  21   10   35 1
  22   11   12 1
  23   12   14 ar
  24   12   15 ar
  25   14   18 ar
  26   14   36 1
  27   15   16 ar
  28   16   17 ar
  29   16   37 1
  30   17   18 ar
  31   17   38 1
  32   18   26 1
  33   19   21 ar
  34   19   20 ar
  35   20   24 ar
  36   20   39 1
  37   21   22 ar
  38   21   40 1
  39   22   23 ar
  40   22   41 1
  41   23   24 ar
  42   23   25 1
  43   24   42 1
  44   26   27 1
  45   26   28 1
  46   27   43 1
  47   27   44 1
  48   27   45 1
  49   28   46 1
  50   28   47 1
  51   28   48 1

#	End of record

