#	Name: ASD02770043
#	Creating user name:	WinNT
#	Creation time:	15. 06. 2019 20:26

#	Modifying user name:	WinNT
#	Modification time:	15. 06. 2019 20:26

#	Program:	/corina/corina34_cracker 3.40 0067  02.08.2006

@<TRIPOS>MOLECULE
ASD02770043
  28   28    0    0    0
SMALL
NO_CHARGES


@<TRIPOS>ATOM
   1 C1            -0.0187     1.5258     0.0104 C.3     
   2 C2             0.0021    -0.0041     0.0020 C.3     
   3 C3            -1.4333    -0.5336     0.0129 C.3     
   4 O4             0.6709    -0.4649    -1.1737 O.3     
   5 N5            -1.4141    -1.9942     0.1252 N.pl3   
   6 C6            -2.6149    -2.7086     0.1551 C.ar    
   7 C7            -2.5985    -4.0947     0.2617 C.ar    
   8 C8            -3.7878    -4.7974     0.2914 C.ar    
   9 C9            -4.9931    -4.1230     0.2153 C.ar    
  10 C10           -5.0123    -2.7448     0.1092 C.ar    
  11 C11           -3.8270    -2.0353     0.0842 C.ar    
  12 N12           -6.2652    -4.8789     0.2469 N.pl3   
  13 O13           -6.2499    -6.0932     0.3399 O.2     
  14 O14           -7.3273    -4.2865     0.1799 O.2     
  15 Cl15          -1.0860    -4.9414     0.3568 Cl      
  16 N16            1.3595     2.0342     0.0000 N.3     
  17 H17           -0.5459     1.8868    -0.8726 H       
  18 H18           -0.5289     1.8773     0.9072 H       
  19 H19            0.5293    -0.3651     0.8851 H       
  20 H20           -1.9701    -0.1109     0.8621 H       
  21 H21           -1.9334    -0.2470    -0.9122 H       
  22 H22            0.2557    -0.1806    -1.9994 H       
  23 H23           -0.5680    -2.4654     0.1789 H       
  24 H24           -3.7763    -5.8741     0.3739 H       
  25 H25           -5.9552    -2.2216     0.0496 H       
  26 H26           -3.8433    -0.9583     0.0055 H       
  27 H27            1.3727     3.0431     0.0053 H       
  28 H28            1.8883     1.6616     0.7744 H       
@<TRIPOS>BOND
   1    1    2 1
   2    1   16 1
   3    1   17 1
   4    1   18 1
   5    2    3 1
   6    2    4 1
   7    2   19 1
   8    3    5 1
   9    3   20 1
  10    3   21 1
  11    4   22 1
  12    5    6 1
  13    5   23 1
  14    6    7 ar
  15    6   11 ar
  16    7    8 ar
  17    7   15 1
  18    8    9 ar
  19    8   24 1
  20    9   10 ar
  21    9   12 1
  22   10   11 ar
  23   10   25 1
  24   11   26 1
  25   12   13 2
  26   12   14 2
  27   16   27 1
  28   16   28 1

#	End of record

