#	Name: ASD06170357
#	Creating user name:	WinNT
#	Creation time:	15. 06. 2019 21:05

#	Modifying user name:	WinNT
#	Modification time:	15. 06. 2019 21:05

#	Program:	/corina/corina34_cracker 3.40 0067  02.08.2006

@<TRIPOS>MOLECULE
ASD06170357
  75   79    0    0    0
SMALL
NO_CHARGES


@<TRIPOS>ATOM
   1 N1             0.0124     0.9683    -0.1462 N.am    
   2 N2             0.2561    -0.3591     0.2187 N.pl3   
   3 C3             1.5783    -0.6111     0.1766 C.2     
   4 C4             2.2319     0.5408    -0.2155 C.2     
   5 C5             1.1924     1.5617    -0.4218 C.2     
   6 C6             3.6790     0.7128    -0.3915 C.2     
   7 O7             4.4323    -0.2204    -0.1853 O.2     
   8 N8             4.1735     1.9045    -0.7814 N.am    
   9 C9            -0.7741    -1.3316     0.5916 C.3     
  10 C10            5.5573     2.1190    -0.7912 C.ar    
  11 C11            6.4247     1.0482    -0.9613 C.ar    
  12 C12            8.2943     2.5462    -0.8117 C.ar    
  13 C13            6.0621     3.4034    -0.6365 C.ar    
  14 O14            9.6379     2.7562    -0.8224 O.3     
  15 N15           11.5897     2.4856    -4.4457 N.ar    
  16 C16           12.2946     2.8717    -3.3754 C.ar    
  17 C17           11.6616     2.9772    -2.1130 C.ar    
  18 C18           10.2861     2.6699    -2.0101 C.ar    
  19 C19            9.6212     2.2778    -3.1587 C.ar    
  20 C20           10.3122     2.1974    -4.3611 C.ar    
  21 O21            1.3634     2.7143    -0.7724 O.2     
  22 C22           -1.2445     1.5775    -0.2191 C.ar    
  23 C23           12.4030     3.3813    -0.9927 C.ar    
  24 C24           13.7302     3.6699    -1.1292 C.ar    
  25 C25           14.3596     3.5669    -2.3779 C.ar    
  26 C26           13.6616     3.1759    -3.4840 C.ar    
  27 C27           -2.1730     1.3810     0.7949 C.ar    
  28 C28           -3.4133     1.9839     0.7198 C.ar    
  29 C29           -3.7313     2.7821    -0.3637 C.ar    
  30 C30           -2.8091     2.9798    -1.3750 C.ar    
  31 C31           -1.5648     2.3848    -1.3029 C.ar    
  32 O32           15.6818     3.8604    -2.4885 O.3     
  33 C33           16.2673     3.7370    -3.7862 C.3     
  34 C34           -1.3403    -1.9842    -0.6711 C.3     
  35 C35            2.2344    -1.9278     0.5032 C.3     
  36 O36           -1.9147    -0.9798    -1.5098 O.3     
  37 C37           -0.2157    -2.6964    -1.4253 C.3     
  38 C38            7.4267     3.6156    -0.6471 C.ar    
  39 O39           14.4490     4.0616    -0.0434 O.3     
  40 C40           13.7506     4.1476     1.2003 C.3     
  41 C41            7.7908     1.2611    -0.9714 C.ar    
  42 F42            8.6358     0.2199    -1.1364 F       
  43 C43           -2.4162    -2.9999    -0.2817 C.3     
  44 O44           -2.8626    -3.6923    -1.4493 O.3     
  45 H45            3.5708     2.6135    -1.0552 H       
  46 H46           -0.3359    -2.0977     1.2313 H       
  47 H47           -1.5753    -0.8242     1.1289 H       
  48 H48            6.0326     0.0496    -1.0854 H       
  49 H49            5.3872     4.2368    -0.5083 H       
  50 H50            8.5698     2.0343    -3.1202 H       
  51 H51            9.7832     1.8899    -5.2510 H       
  52 H52           11.9261     3.4640    -0.0273 H       
  53 H53           14.1590     3.1005    -4.4397 H       
  54 H54           -1.9255     0.7571     1.6410 H       
  55 H55           -4.1357     1.8314     1.5080 H       
  56 H56           -4.7021     3.2519    -0.4204 H       
  57 H57           -3.0605     3.6038    -2.2198 H       
  58 H58           -0.8450     2.5396    -2.0930 H       
  59 H59           17.3239     4.0001    -3.7345 H       
  60 H60           16.1654     2.7092    -4.1345 H       
  61 H61           15.7594     4.4077    -4.4793 H       
  62 H62            2.3067    -2.5320    -0.4011 H       
  63 H63            3.2333    -1.7474     0.9004 H       
  64 H64            1.6378    -2.4565     1.2467 H       
  65 H65           -2.6360    -0.4867    -1.0954 H       
  66 H66            0.2225    -3.4625    -0.7856 H       
  67 H67           -0.6191    -3.1613    -2.3249 H       
  68 H68            0.5508    -1.9728    -1.7027 H       
  69 H69            7.8185     4.6143    -0.5230 H       
  70 H70           12.9378     4.8685     1.1115 H       
  71 H71           13.3426     3.1698     1.4563 H       
  72 H72           14.4386     4.4702     1.9818 H       
  73 H73           -2.0007    -3.7151     0.4282 H       
  74 H74           -3.2577    -2.4802     0.1765 H       
  75 H75           -3.5468    -4.3535    -1.2770 H       
@<TRIPOS>BOND
   1    1    2 1
   2    1    5 am
   3    1   22 1
   4    2    3 1
   5    2    9 1
   6    3    4 2
   7    3   35 1
   8    4    5 1
   9    4    6 1
  10    5   21 2
  11    6    7 2
  12    6    8 am
  13    8   10 1
  14    8   45 1
  15    9   34 1
  16    9   46 1
  17    9   47 1
  18   10   11 ar
  19   10   13 ar
  20   11   41 ar
  21   11   48 1
  22   12   38 ar
  23   12   14 1
  24   12   41 ar
  25   13   38 ar
  26   13   49 1
  27   14   18 1
  28   15   16 ar
  29   15   20 ar
  30   16   17 ar
  31   16   26 ar
  32   17   18 ar
  33   17   23 ar
  34   18   19 ar
  35   19   20 ar
  36   19   50 1
  37   20   51 1
  38   22   27 ar
  39   22   31 ar
  40   23   24 ar
  41   23   52 1
  42   24   25 ar
  43   24   39 1
  44   25   26 ar
  45   25   32 1
  46   26   53 1
  47   27   28 ar
  48   27   54 1
  49   28   29 ar
  50   28   55 1
  51   29   30 ar
  52   29   56 1
  53   30   31 ar
  54   30   57 1
  55   31   58 1
  56   32   33 1
  57   33   59 1
  58   33   60 1
  59   33   61 1
  60   34   36 1
  61   34   37 1
  62   34   43 1
  63   35   62 1
  64   35   63 1
  65   35   64 1
  66   36   65 1
  67   37   66 1
  68   37   67 1
  69   37   68 1
  70   38   69 1
  71   39   40 1
  72   40   70 1
  73   40   71 1
  74   40   72 1
  75   41   42 1
  76   43   44 1
  77   43   73 1
  78   43   74 1
  79   44   75 1

#	End of record

