#	Name: ASD01920074
#	Creating user name:	WinNT
#	Creation time:	15. 06. 2019 20:11

#	Modifying user name:	WinNT
#	Modification time:	15. 06. 2019 20:11

#	Program:	/corina/corina34_cracker 3.40 0067  02.08.2006

@<TRIPOS>MOLECULE
ASD01920074
  37   39    0    0    0
SMALL
NO_CHARGES


@<TRIPOS>ATOM
   1 C1            -0.0169     1.3978     0.0097 C.2     
   2 C2             0.0021    -0.0041     0.0020 C.2     
   3 N3             1.1454    -0.6498    -0.0119 N.2     
   4 C4             2.3064     0.0125    -0.0194 C.2     
   5 N5             2.3291     1.3834    -0.0128 N.pl3   
   6 C6             1.1545     2.0800     0.0022 C.2     
   7 C7            -1.2942    -0.7726     0.0103 C.3     
   8 C8             3.6401    -0.4137    -0.0340 C.2     
   9 C9             4.4414     0.7322    -0.0358 C.2     
  10 N10            3.6675     1.7911    -0.0232 N.2     
  11 C11            5.9483     0.7480    -0.0490 C.3     
  12 C12            4.1141    -1.8178    -0.0455 C.ar    
  13 C13            4.8106    -2.3114    -1.1483 C.ar    
  14 C14            5.2507    -3.6186    -1.1553 C.ar    
  15 C15            5.0007    -4.4427    -0.0668 C.ar    
  16 C16            4.3073    -3.9549     1.0323 C.ar    
  17 C17            3.8697    -2.6470     1.0488 C.ar    
  18 O18            5.4355    -5.7306    -0.0773 O.3     
  19 C19            5.1440    -6.5232     1.0755 C.3     
  20 F20            5.7289    -5.9382     2.2037 F       
  21 F21            3.7582    -6.5957     1.2533 F       
  22 C22            1.1605     3.5869     0.0097 C.3     
  23 F23           -0.1565     4.0585     0.0244 F       
  24 F24            1.8325     4.0449     1.1481 F       
  25 F25            1.8112     4.0564    -1.1363 F       
  26 H26           -0.9569     1.9297     0.0171 H       
  27 H27           -1.6165    -0.9524    -1.0154 H       
  28 H28           -1.1480    -1.7262     0.5176 H       
  29 H29           -2.0556    -0.1951     0.5345 H       
  30 H30            6.3025     0.7567    -1.0799 H       
  31 H31            6.3068     1.6394     0.4658 H       
  32 H32            6.3254    -0.1405     0.4573 H       
  33 H33            5.0049    -1.6709    -1.9959 H       
  34 H34            5.7901    -4.0015    -2.0090 H       
  35 H35            4.1139    -4.5991     1.8773 H       
  36 H36            3.3303    -2.2681     1.9044 H       
  37 H37            5.5456    -7.5270     0.9373 H       
@<TRIPOS>BOND
   1    1    2 1
   2    1    6 2
   3    1   26 1
   4    2    3 2
   5    2    7 1
   6    3    4 1
   7    4    5 1
   8    4    8 2
   9    5    6 1
  10    5   10 1
  11    6   22 1
  12    7   27 1
  13    7   28 1
  14    7   29 1
  15    8    9 1
  16    8   12 1
  17    9   10 2
  18    9   11 1
  19   11   30 1
  20   11   31 1
  21   11   32 1
  22   12   13 ar
  23   12   17 ar
  24   13   14 ar
  25   13   33 1
  26   14   15 ar
  27   14   34 1
  28   15   16 ar
  29   15   18 1
  30   16   17 ar
  31   16   35 1
  32   17   36 1
  33   18   19 1
  34   19   20 1
  35   19   21 1
  36   19   37 1
  37   22   23 1
  38   22   24 1
  39   22   25 1

#	End of record

