#	Name: ASD09330002
#	Creating user name:	WinNT
#	Creation time:	15. 06. 2019 21:21

#	Modifying user name:	WinNT
#	Modification time:	15. 06. 2019 21:21

#	Program:	/corina/corina34_cracker 3.40 0067  02.08.2006

@<TRIPOS>MOLECULE
ASD09330002
  35   35    0    0    0
SMALL
NO_CHARGES


@<TRIPOS>ATOM
   1 C1            -0.0178     1.4608     0.0101 C.3     
   2 C2            -0.6982     3.5003    -1.2551 C.3     
   3 C3             0.7638     3.9527    -1.2171 C.3     
   4 C4             0.8242     5.4810    -1.1767 C.3     
   5 C5             0.1445    -2.1896     1.1517 C.3     
   6 O6             2.0677     8.1135    -0.0400 O.2     
   7 P7             2.6231     7.4557    -1.2439 P.3     
   8 O8             2.0580     8.1854    -2.5631 O.3     
   9 O9             4.2295     7.5599    -1.2195 O.3     
  10 O10            2.1860     5.9063    -1.2587 O.3     
  11 O11           -1.3181     3.9838    -2.4484 O.3     
  12 C12           -0.7516     1.9696    -1.2345 C.3     
  13 O13           -2.1137     1.5393    -1.1957 O.3     
  14 O14            1.3958     3.4199    -0.0514 O.3     
  15 C15            1.4180     1.9920    -0.0008 C.3     
  16 O16            2.0921     1.5675     1.1856 O.3     
  17 N17            0.0021    -0.0041     0.0020 N.am    
  18 C18            0.1240    -0.6827     1.1600 C.2     
  19 O19            0.2173    -0.0808     2.2088 O.2     
  20 H20           -0.5298     1.8132     0.9055 H       
  21 H21           -1.2243     3.8949    -0.3858 H       
  22 H22            1.2793     3.5918    -2.1071 H       
  23 H23            0.2648     5.8890    -2.0186 H       
  24 H24            0.3878     5.8373    -0.2436 H       
  25 H25            0.9855    -2.5382     0.5524 H       
  26 H26            0.2487    -2.5571     2.1726 H       
  27 H27           -0.7860    -2.5632     0.7243 H       
  28 H28            2.3811     7.8057    -3.3916 H       
  29 H29            4.5648     8.4669    -1.2096 H       
  30 H30           -1.3202     4.9475    -2.5279 H       
  31 H31           -0.2688     1.5759    -2.1289 H       
  32 H32           -2.6405     1.8324    -1.9518 H       
  33 H33            1.9420     1.6054    -0.8749 H       
  34 H34            3.0090     1.8687     1.2460 H       
  35 H35           -0.0725    -0.4855    -0.8368 H       
@<TRIPOS>BOND
   1    1   17 1
   2    1   15 1
   3    1   20 1
   4    1   12 1
   5    2   12 1
   6    2   21 1
   7    2    3 1
   8    2   11 1
   9    3   14 1
  10    3   22 1
  11    3    4 1
  12    4   10 1
  13    4   23 1
  14    4   24 1
  15    5   25 1
  16    5   26 1
  17    5   27 1
  18    5   18 1
  19    6    7 2
  20    7   10 1
  21    7    9 1
  22    7    8 1
  23    8   28 1
  24    9   29 1
  25   11   30 1
  26   12   31 1
  27   12   13 1
  28   13   32 1
  29   14   15 1
  30   15   16 1
  31   15   33 1
  32   16   34 1
  33   17   18 am
  34   17   35 1
  35   18   19 2

#	End of record

