#	Name: ASD01230824
#	Creating user name:	WinNT
#	Creation time:	15. 06. 2019 19:15

#	Modifying user name:	WinNT
#	Modification time:	15. 06. 2019 19:15

#	Program:	/corina/corina34_cracker 3.40 0067  02.08.2006

@<TRIPOS>MOLECULE
ASD01230824
  43   46    0    0    0
SMALL
NO_CHARGES


@<TRIPOS>ATOM
   1 C1            -0.0166     1.3739     0.0096 C.2     
   2 C2             0.0021    -0.0041     0.0020 C.2     
   3 C3            -1.2143    -0.6999     0.0083 C.2     
   4 C4            -2.3848    -0.0389     0.0105 C.2     
   5 N5            -2.4623     1.3310     0.0013 N.pl3   
   6 C6            -1.3175     2.0759     0.0320 C.2     
   7 C7            -3.8100     1.9041    -0.0487 C.3     
   8 C8            -3.8784     3.1897     0.7808 C.3     
   9 S9            -2.6224     4.3260     0.1128 S.o2    
  10 N10           -1.2622     3.3847     0.0820 N.am    
  11 C11            1.2496     2.1412     0.0016 C.ar    
  12 O12           -2.8873     4.6254    -1.2508 O.2     
  13 O13           -2.3217     5.3519     1.0489 O.2     
  14 C14            2.1024     2.0740    -1.1004 C.ar    
  15 C15            3.2810     2.7914    -1.1018 C.ar    
  16 C16            3.6177     3.5762    -0.0132 C.ar    
  17 C17            2.7762     3.6470     1.0827 C.ar    
  18 C18            1.5921     2.9389     1.0938 C.ar    
  19 C19            4.9068     4.3567    -0.0211 C.3     
  20 C20            5.3351     4.8908    -1.3637 C.2     
  21 O21            5.9066     5.9528    -1.4370 O.2     
  22 O22            5.0816     4.1867    -2.4780 O.3     
  23 C23            5.5227     4.7621    -3.7360 C.3     
  24 C24            5.2265     5.2051     1.2113 C.3     
  25 C25            6.0063     3.9147     0.9467 C.3     
  26 H26            0.9399    -0.5395    -0.0090 H       
  27 H27           -1.2112    -1.7799     0.0110 H       
  28 H28           -3.3018    -0.6095     0.0196 H       
  29 H29           -4.0665     2.1299    -1.0837 H       
  30 H30           -4.5230     1.1816     0.3485 H       
  31 H31           -4.8685     3.6368     0.6920 H       
  32 H32           -3.6616     2.9693     1.8260 H       
  33 H33            1.8408     1.4615    -1.9506 H       
  34 H34            3.9422     2.7399    -1.9541 H       
  35 H35            3.0448     4.2611     1.9295 H       
  36 H36            0.9359     2.9953     1.9497 H       
  37 H37            5.2561     4.0936    -4.5546 H       
  38 H38            5.0389     5.7277    -3.8833 H       
  39 H39            6.6041     4.8970    -3.7145 H       
  40 H40            5.7469     6.1493     1.0511 H       
  41 H41            4.5045     5.1987     2.0278 H       
  42 H42            5.7971     3.0595     1.5895 H       
  43 H43            7.0394     4.0104     0.6126 H       
@<TRIPOS>BOND
   1    1    2 2
   2    1   11 1
   3    1    6 1
   4    2    3 1
   5    2   26 1
   6    3    4 2
   7    3   27 1
   8    4    5 1
   9    4   28 1
  10    5    6 1
  11    5    7 1
  12    6   10 2
  13    7    8 1
  14    7   29 1
  15    7   30 1
  16    8    9 1
  17    8   31 1
  18    8   32 1
  19    9   10 am
  20    9   12 2
  21    9   13 2
  22   11   14 ar
  23   11   18 ar
  24   14   15 ar
  25   14   33 1
  26   15   16 ar
  27   15   34 1
  28   16   17 ar
  29   16   19 1
  30   17   18 ar
  31   17   35 1
  32   18   36 1
  33   19   20 1
  34   19   24 1
  35   19   25 1
  36   20   21 2
  37   20   22 1
  38   22   23 1
  39   23   37 1
  40   23   38 1
  41   23   39 1
  42   24   25 1
  43   24   40 1
  44   24   41 1
  45   25   42 1
  46   25   43 1

#	End of record

