#	Name: ASD01910144
#	Creating user name:	WinNT
#	Creation time:	15. 06. 2019 19:55

#	Modifying user name:	WinNT
#	Modification time:	15. 06. 2019 19:55

#	Program:	/corina/corina34_cracker 3.40 0067  02.08.2006

@<TRIPOS>MOLECULE
ASD01910144
  42   44    0    0    0
SMALL
NO_CHARGES


@<TRIPOS>ATOM
   1 C1             0.0792     1.1912    -0.4430 C.ar    
   2 C2             0.0627    -0.1029     0.0470 C.ar    
   3 C3             1.2234    -0.6830     0.5281 C.ar    
   4 C4             2.4061     0.0261     0.5229 C.ar    
   5 C5             2.4307     1.3337     0.0296 C.ar    
   6 C6             1.2544     1.9127    -0.4551 C.ar    
   7 C7             3.6549     2.0767     0.0213 C.1     
   8 C8             4.6585     2.6858     0.0144 C.1     
   9 C9             5.8826     3.4288     0.0061 C.ar    
  10 N10            5.8932     4.6734    -0.4663 N.ar    
  11 C11            6.9946     5.3910    -0.4920 C.ar    
  12 C12            8.1989     4.8627    -0.0199 C.ar    
  13 C13            8.2201     3.5536     0.4842 C.ar    
  14 C14            7.0520     2.8399     0.4999 C.ar    
  15 C15            9.4333     5.6715    -0.0516 C.2     
  16 O16            9.4262     6.8086     0.3789 O.2     
  17 N17           10.5681     5.1495    -0.5576 N.am    
  18 C18           10.6204     3.7502    -1.0074 C.3     
  19 C19           11.1970     3.7164    -2.4268 C.3     
  20 N20           12.4844     4.4235    -2.4459 N.3     
  21 C21           12.3177     5.8432    -2.1071 C.3     
  22 C22           11.7854     5.9659    -0.6803 C.3     
  23 C23           13.1517     4.2672    -3.7453 C.3     
  24 H24           -0.8297     1.6357    -0.8209 H       
  25 H25           -0.8608    -0.6629     0.0542 H       
  26 H26            1.2028    -1.6934     0.9089 H       
  27 H27            3.3110    -0.4276     0.8993 H       
  28 H28            1.2659     2.9224    -0.8381 H       
  29 H29            6.9683     6.3978    -0.8820 H       
  30 H30            9.1369     3.1199     0.8553 H       
  31 H31            7.0349     1.8297     0.8815 H       
  32 H32           11.2600     3.1743    -0.3386 H       
  33 H33            9.6152     3.3287    -1.0104 H       
  34 H34           11.3459     2.6813    -2.7344 H       
  35 H35           10.5041     4.2039    -3.1126 H       
  36 H36           13.2795     6.3505    -2.1828 H       
  37 H37           11.6092     6.3010    -2.7974 H       
  38 H38           11.5521     7.0086    -0.4650 H       
  39 H39           12.5350     5.6027     0.0227 H       
  40 H40           12.5168     4.6760    -4.5313 H       
  41 H41           14.1023     4.8004    -3.7320 H       
  42 H42           13.3312     3.2092    -3.9366 H       
@<TRIPOS>BOND
   1    1    2 ar
   2    1    6 ar
   3    1   24 1
   4    2    3 ar
   5    2   25 1
   6    3    4 ar
   7    3   26 1
   8    4    5 ar
   9    4   27 1
  10    5    6 ar
  11    5    7 1
  12    6   28 1
  13    7    8 3
  14    8    9 1
  15    9   10 ar
  16    9   14 ar
  17   10   11 ar
  18   11   12 ar
  19   11   29 1
  20   12   13 ar
  21   12   15 1
  22   13   14 ar
  23   13   30 1
  24   14   31 1
  25   15   16 2
  26   15   17 am
  27   17   18 1
  28   17   22 1
  29   18   19 1
  30   18   32 1
  31   18   33 1
  32   19   20 1
  33   19   34 1
  34   19   35 1
  35   20   21 1
  36   20   23 1
  37   21   22 1
  38   21   36 1
  39   21   37 1
  40   22   38 1
  41   22   39 1
  42   23   40 1
  43   23   41 1
  44   23   42 1

#	End of record

