#	Name: ASD08170159
#	Creating user name:	WinNT
#	Creation time:	15. 06. 2019 21:17

#	Modifying user name:	WinNT
#	Modification time:	15. 06. 2019 21:17

#	Program:	/corina/corina34_cracker 3.40 0067  02.08.2006

@<TRIPOS>MOLECULE
ASD08170159
  79   80    0    0    0
SMALL
NO_CHARGES


@<TRIPOS>ATOM
   1 Cl1            0.0000     0.0000     0.0000 Cl      
   2 H2             0.0000     1.3700     0.0000 H       
   3 Cl3            5.0000     6.3700     5.0000 Cl      
   4 H4             5.0000     7.7400     5.0000 H       
   5 C5            13.0967    24.7985    15.0897 C.3     
   6 C6            16.2692    27.5740    15.0743 C.3     
   7 C7            16.4210    29.0964    15.0810 C.3     
   8 C8            17.8846    29.4554    15.0690 C.2     
   9 C9            13.1171    23.2917    15.0814 C.2     
  10 S10           18.9086    29.6956    16.4850 S.3     
  11 C11           20.2314    30.0272    15.4482 C.2     
  12 N12           19.8278    29.9376    14.2168 N.2     
  13 N13           18.6179    29.6375    14.0169 N.2     
  14 S14           13.1176    22.2590    13.6513 S.3     
  15 N15           13.1432    22.5223    16.1230 N.2     
  16 N16           13.1573    21.2786    15.9064 N.2     
  17 C17           13.1467    20.8818    14.6696 C.2     
  18 N18           13.1589    19.5582    14.2428 N.am    
  19 C19           13.1845    18.5589    15.1468 C.2     
  20 O20           13.1968    18.8139    16.3325 O.2     
  21 N21           21.5231    30.3409    15.8571 N.am    
  22 C22           22.4805    30.5821    14.9396 C.2     
  23 C23           23.8802    30.9220    15.3827 C.3     
  24 O24           22.2155    30.5257    13.7574 O.2     
  25 C25           13.1977    17.1246    14.6844 C.3     
  26 C26           13.2260    16.2108    15.8824 C.ar    
  27 C27           14.5321    25.3281    15.0788 C.3     
  28 C28           12.0419    15.7764    16.4466 C.ar    
  29 S29           14.5075    27.1419    15.0888 S.3     
  30 C30           24.7503    31.1440    14.1724 C.ar    
  31 C31           24.8635    32.4084    13.6268 C.ar    
  32 C32           12.0653    14.9352    17.5501 C.ar    
  33 C33           13.2780    14.5304    18.0860 C.ar    
  34 C34           14.4647    14.9673    17.5179 C.ar    
  35 C35           14.4360    15.8042    16.4113 C.ar    
  36 C36           25.6637    32.6152    12.5121 C.ar    
  37 C37           26.3502    31.5521    11.9461 C.ar    
  38 C38           26.2353    30.2845    12.4956 C.ar    
  39 C39           25.4379    30.0838    13.6135 C.ar    
  40 O40           25.7739    33.8589    11.9754 O.3     
  41 C41           26.6148    33.9983    10.8285 C.3     
  42 O42           26.9067    29.2402    11.9428 O.3     
  43 C43           27.7126    29.5209    10.7966 C.3     
  44 O44           15.6551    14.5726    18.0413 O.3     
  45 C45           15.6092    13.7069    19.1773 C.3     
  46 O46           10.9003    14.5090    18.1051 O.3     
  47 C47           10.9999    13.6449    19.2389 C.3     
  48 H48           12.5695    25.1596    14.2066 H       
  49 H49           12.5865    25.1501    15.9865 H       
  50 H50           16.7359    27.1663    14.1776 H       
  51 H51           16.7529    27.1567    15.9574 H       
  52 H52           15.9373    29.5137    14.1978 H       
  53 H53           15.9543    29.5042    15.9777 H       
  54 H54           13.1491    19.3542    13.2946 H       
  55 H55           21.7350    30.3860    16.8026 H       
  56 H56           23.8599    31.8291    15.9868 H       
  57 H57           24.2836    30.1003    15.9744 H       
  58 H58           12.3024    16.9244    14.0957 H       
  59 H59           14.0821    16.9485    14.0721 H       
  60 H60           15.0593    24.9670    15.9619 H       
  61 H61           15.0423    24.9766    14.1820 H       
  62 H62           11.0973    16.0920    16.0287 H       
  63 H63           24.3284    33.2363    14.0681 H       
  64 H64           13.2983    13.8761    18.9450 H       
  65 H65           15.3602    16.1448    15.9683 H       
  66 H66           26.9731    31.7110    11.0783 H       
  67 H67           25.3481    29.0965    14.0420 H       
  68 H68           27.6311    33.6987    11.0845 H       
  69 H69           26.2408    33.3645    10.0245 H       
  70 H70           26.6141    35.0382    10.5017 H       
  71 H71           28.4757    30.2535    11.0596 H       
  72 H72           28.1920    28.6032    10.4560 H       
  73 H73           27.0848    29.9202    10.0000 H       
  74 H74           15.0815    14.2037    19.9915 H       
  75 H75           15.0863    12.7878    18.9128 H       
  76 H76           16.6246    13.4690    19.4941 H       
  77 H77           11.5396    12.7400    18.9598 H       
  78 H78           11.5359    14.1555    20.0389 H       
  79 H79           10.0000    13.3801    19.5828 H       
@<TRIPOS>BOND
   1    1    2 1
   2    3    4 1
   3    5    9 1
   4    5   27 1
   5    5   48 1
   6    5   49 1
   7    6    7 1
   8    6   29 1
   9    6   50 1
  10    6   51 1
  11    7    8 1
  12    7   52 1
  13    7   53 1
  14    8   10 1
  15    8   13 2
  16    9   14 1
  17    9   15 2
  18   10   11 1
  19   11   12 2
  20   11   21 1
  21   12   13 1
  22   14   17 1
  23   15   16 1
  24   16   17 2
  25   17   18 1
  26   18   19 am
  27   18   54 1
  28   19   20 2
  29   19   25 1
  30   21   22 am
  31   21   55 1
  32   22   23 1
  33   22   24 2
  34   23   30 1
  35   23   56 1
  36   23   57 1
  37   25   26 1
  38   25   58 1
  39   25   59 1
  40   26   28 ar
  41   26   35 ar
  42   27   29 1
  43   27   60 1
  44   27   61 1
  45   28   32 ar
  46   28   62 1
  47   30   31 ar
  48   30   39 ar
  49   31   36 ar
  50   31   63 1
  51   32   33 ar
  52   32   46 1
  53   33   34 ar
  54   33   64 1
  55   34   35 ar
  56   34   44 1
  57   35   65 1
  58   36   37 ar
  59   36   40 1
  60   37   38 ar
  61   37   66 1
  62   38   39 ar
  63   38   42 1
  64   39   67 1
  65   40   41 1
  66   41   68 1
  67   41   69 1
  68   41   70 1
  69   42   43 1
  70   43   71 1
  71   43   72 1
  72   43   73 1
  73   44   45 1
  74   45   74 1
  75   45   75 1
  76   45   76 1
  77   46   47 1
  78   47   77 1
  79   47   78 1
  80   47   79 1

#	End of record

