#	Name: ASD02508048
#	Creating user name:	WinNT
#	Creation time:	15. 06. 2019 20:23

#	Modifying user name:	WinNT
#	Modification time:	15. 06. 2019 20:23

#	Program:	/corina/corina34_cracker 3.40 0067  02.08.2006

@<TRIPOS>MOLECULE
ASD02508048
  37   39    0    0    0
SMALL
NO_CHARGES


@<TRIPOS>ATOM
   1 C1             0.1933     1.2956    -0.9745 C.ar    
   2 C2             0.6831     0.3568    -1.8683 C.ar    
   3 C3             0.8789     1.5587     0.2116 C.ar    
   4 C4             2.0524     0.8786     0.4937 C.ar    
   5 C5             2.5397    -0.0603    -0.4041 C.ar    
   6 C6             1.8530    -0.3200    -1.5842 C.ar    
   7 N7            -0.9295     2.1270    -0.9781 N.am    
   8 C8            -0.9057     2.8435     0.1632 C.2     
   9 O9             0.1779     2.5070     0.8802 O.3     
  10 N10            3.7249    -0.7475    -0.1207 N.am    
  11 S11            4.9597     0.0224     0.6697 S.o2    
  12 C12            5.4432     1.3923    -0.3274 C.ar    
  13 C13            5.9857     1.1775    -1.5862 C.ar    
  14 O14           -1.7351     3.6704     0.4904 O.2     
  15 O15            4.3985     0.5678     1.8558 O.2     
  16 O16            6.0580    -0.8792     0.6727 O.2     
  17 C17            2.3865    -1.3407    -2.5561 C.3     
  18 C18            5.2773     2.6809     0.1413 C.ar    
  19 C19            5.6569     3.7572    -0.6414 C.ar    
  20 C20            6.2033     3.5448    -1.8945 C.ar    
  21 C21            6.3657     2.2574    -2.3692 C.ar    
  22 O22            6.1451    -0.0897    -2.0513 O.3     
  23 C23            6.7099    -0.2358    -3.3557 C.3     
  24 Cl24           5.4468     5.3759    -0.0503 Cl      
  25 H25            0.1504     0.1544    -2.7858 H       
  26 H26            2.5870     1.0791     1.4105 H       
  27 H27           -1.6027     2.1793    -1.6746 H       
  28 H28            3.8233    -1.6750    -0.3872 H       
  29 H29            1.9760    -2.3212    -2.3150 H       
  30 H30            2.0957    -1.0642    -3.5695 H       
  31 H31            3.4738    -1.3750    -2.4866 H       
  32 H32            4.8506     2.8487     1.1192 H       
  33 H33            6.4987     4.3860    -2.5041 H       
  34 H34            6.7926     2.0920    -3.3473 H       
  35 H35            6.0743     0.2661    -4.0852 H       
  36 H36            7.7045     0.2097    -3.3730 H       
  37 H37            6.7818    -1.2947    -3.6041 H       
@<TRIPOS>BOND
   1    1    2 ar
   2    1    3 ar
   3    1    7 1
   4    2    6 ar
   5    2   25 1
   6    3    4 ar
   7    3    9 1
   8    4    5 ar
   9    4   26 1
  10    5    6 ar
  11    5   10 1
  12    6   17 1
  13    7    8 am
  14    7   27 1
  15    8    9 1
  16    8   14 2
  17   10   11 am
  18   10   28 1
  19   11   12 1
  20   11   15 2
  21   11   16 2
  22   12   13 ar
  23   12   18 ar
  24   13   22 1
  25   13   21 ar
  26   17   29 1
  27   17   30 1
  28   17   31 1
  29   18   19 ar
  30   18   32 1
  31   19   20 ar
  32   19   24 1
  33   20   21 ar
  34   20   33 1
  35   21   34 1
  36   22   23 1
  37   23   35 1
  38   23   36 1
  39   23   37 1

#	End of record

