#	Name: ASD01150746
#	Creating user name:	WinNT
#	Creation time:	15. 06. 2019 19:04

#	Modifying user name:	WinNT
#	Modification time:	15. 06. 2019 19:04

#	Program:	/corina/corina34_cracker 3.40 0067  02.08.2006

@<TRIPOS>MOLECULE
ASD01150746
  47   49    0    0    0
SMALL
NO_CHARGES


@<TRIPOS>ATOM
   1 C1             0.0406     1.4787     0.4555 C.2     
   2 C2            -0.8227     1.0290    -0.6950 C.3     
   3 F3            -2.1308     1.4867    -0.5031 F       
   4 F4            -0.3165     1.5514    -1.8899 F       
   5 F5            -0.8224    -0.3685    -0.7599 F       
   6 N6             3.4362     2.7926    -0.2046 N.ar    
   7 C7             2.4440     1.9673     0.0037 C.ar    
   8 C8             1.1336     2.4292     0.2245 C.ar    
   9 C9             0.8840     3.8136     0.2205 C.ar    
  10 C10            1.9812     4.6796    -0.0088 C.ar    
  11 C11            1.8160     6.0713    -0.0283 C.ar    
  12 C12            2.8940     6.8752    -0.2518 C.ar    
  13 C13            4.1576     6.3301    -0.4614 C.ar    
  14 C14            4.3520     4.9816    -0.4492 C.ar    
  15 C15            3.2656     4.1215    -0.2213 C.ar    
  16 C16           -0.4757     4.3460     0.4472 C.ar    
  17 C17           -1.1049     4.1610     1.6802 C.ar    
  18 C18           -2.3742     4.6606     1.8849 C.ar    
  19 C19           -3.0242     5.3432     0.8718 C.ar    
  20 C20           -2.4067     5.5301    -0.3524 C.ar    
  21 C21           -1.1352     5.0413    -0.5688 C.ar    
  22 C22            2.7107     0.4841     0.0080 C.3     
  23 C23            2.7156     8.3715    -0.2727 C.3     
  24 C24            2.1727     8.8393     1.0792 C.3     
  25 C25            4.0644     9.0423    -0.5404 C.3     
  26 C26            1.7284     8.7520    -1.3779 C.3     
  27 O27           -0.1716     1.0583     1.5735 O.2     
  28 H28            0.8397     6.5044     0.1325 H       
  29 H29            4.9971     6.9865    -0.6369 H       
  30 H30            5.3390     4.5753    -0.6143 H       
  31 H31           -0.5990     3.6278     2.4715 H       
  32 H32           -2.8620     4.5183     2.8379 H       
  33 H33           -4.0183     5.7317     1.0372 H       
  34 H34           -2.9197     6.0638    -1.1388 H       
  35 H35           -0.6526     5.1917    -1.5232 H       
  36 H36            2.8636     0.1454     1.0327 H       
  37 H37            1.8582    -0.0396    -0.4244 H       
  38 H38            3.6033     0.2737    -0.5811 H       
  39 H39            2.8760     8.5682     1.8666 H       
  40 H40            2.0437     9.9215     1.0641 H       
  41 H41            1.2118     8.3614     1.2699 H       
  42 H42            4.4511     8.7090    -1.5035 H       
  43 H43            3.9353    10.1245    -0.5555 H       
  44 H44            4.7676     8.7712     0.2470 H       
  45 H45            0.7675     8.2741    -1.1872 H       
  46 H46            1.5994     9.8342    -1.3930 H       
  47 H47            2.1151     8.4187    -2.3410 H       
@<TRIPOS>BOND
   1    1    2 1
   2    1    8 1
   3    1   27 2
   4    2    3 1
   5    2    4 1
   6    2    5 1
   7    6    7 ar
   8    6   15 ar
   9    7    8 ar
  10    7   22 1
  11    8    9 ar
  12    9   10 ar
  13    9   16 1
  14   10   11 ar
  15   10   15 ar
  16   11   12 ar
  17   11   28 1
  18   12   13 ar
  19   12   23 1
  20   13   14 ar
  21   13   29 1
  22   14   15 ar
  23   14   30 1
  24   16   17 ar
  25   16   21 ar
  26   17   18 ar
  27   17   31 1
  28   18   19 ar
  29   18   32 1
  30   19   20 ar
  31   19   33 1
  32   20   21 ar
  33   20   34 1
  34   21   35 1
  35   22   36 1
  36   22   37 1
  37   22   38 1
  38   23   24 1
  39   23   26 1
  40   23   25 1
  41   24   39 1
  42   24   40 1
  43   24   41 1
  44   25   42 1
  45   25   43 1
  46   25   44 1
  47   26   45 1
  48   26   46 1
  49   26   47 1

#	End of record

