#	Name: ASD03430682
#	Creating user name:	WinNT
#	Creation time:	15. 06. 2019 20:41

#	Modifying user name:	WinNT
#	Modification time:	15. 06. 2019 20:41

#	Program:	/corina/corina34_cracker 3.40 0067  02.08.2006

@<TRIPOS>MOLECULE
ASD03430682
  56   61    0    0    0
SMALL
NO_CHARGES


@<TRIPOS>ATOM
   1 C1             2.6585     0.3854    -0.0088 C.ar    
   2 C2             2.0920    -0.8746    -0.0457 C.ar    
   3 C3             2.8813    -1.9838    -0.2625 C.ar    
   4 C4             4.2568    -1.8528    -0.4356 C.ar    
   5 C5             4.8222    -0.5821    -0.4027 C.ar    
   6 C6             4.0267     0.5306    -0.1908 C.ar    
   7 O7             4.8510    -3.0674    -0.6061 O.3     
   8 C8             2.5725    -3.4522    -0.3811 C.3     
   9 C9             3.8549    -4.0337    -0.9924 C.3     
  10 C10            0.9794    -4.6310     0.7991 C.ar    
  11 C11            2.2498    -4.0780     0.9430 C.ar    
  12 C12            1.3739    -3.7130    -1.2476 C.2     
  13 N13            0.4957    -4.4008    -0.4909 N.am    
  14 O14            1.2251    -3.3714    -2.4018 O.2     
  15 C15            2.9275    -4.1818     2.1367 C.ar    
  16 C16            2.3487    -4.8398     3.2077 C.ar    
  17 C17            1.0882    -5.3925     3.0760 C.ar    
  18 C18            0.4048    -5.2913     1.8818 C.ar    
  19 C19           -0.8136    -4.8545    -0.9664 C.3     
  20 O20            4.5869     1.7684    -0.1608 O.3     
  21 C21            3.7081     2.8730     0.0623 C.3     
  22 C22           -1.8991    -4.1862    -0.1625 C.ar    
  23 C23           -3.0436    -4.8866     0.1700 C.ar    
  24 C24           -4.0393    -4.2736     0.9073 C.ar    
  25 C25           -3.8904    -2.9604     1.3125 C.ar    
  26 C26           -2.7455    -2.2603     0.9808 C.ar    
  27 C27           -1.7478    -2.8747     0.2472 C.ar    
  28 C28           -0.9721    -4.4947    -2.4212 C.ar    
  29 C29           -0.9336    -5.4839    -3.3860 C.ar    
  30 C30           -1.0789    -5.1539    -4.7205 C.ar    
  31 C31           -1.2632    -3.8347    -5.0901 C.ar    
  32 C32           -1.3025    -2.8455    -4.1252 C.ar    
  33 C33           -1.1615    -3.1761    -2.7904 C.ar    
  34 H34            2.0383     1.2540     0.1564 H       
  35 H35            1.0277    -0.9907     0.0962 H       
  36 H36            5.8865    -0.4634    -0.5428 H       
  37 H37            3.7738    -4.0932    -2.0778 H       
  38 H38            4.0782    -5.0115    -0.5657 H       
  39 H39            3.9122    -3.7496     2.2374 H       
  40 H40            2.8804    -4.9216     4.1442 H       
  41 H41            0.6366    -5.9063     3.9118 H       
  42 H42           -0.5793    -5.7257     1.7865 H       
  43 H43           -0.8880    -5.9356    -0.8493 H       
  44 H44            4.2820     3.7996     0.0628 H       
  45 H45            2.9610     2.9087    -0.7306 H       
  46 H46            3.2109     2.7531     1.0249 H       
  47 H47           -3.1600    -5.9125    -0.1466 H       
  48 H48           -4.9338    -4.8205     1.1665 H       
  49 H49           -4.6686    -2.4812     1.8880 H       
  50 H50           -2.6293    -1.2342     1.2971 H       
  51 H51           -0.8517    -2.3289    -0.0088 H       
  52 H52           -0.7897    -6.5146    -3.0972 H       
  53 H53           -1.0482    -5.9267    -5.4743 H       
  54 H54           -1.3760    -3.5767    -6.1328 H       
  55 H55           -1.4461    -1.8148    -4.4141 H       
  56 H56           -1.1960    -2.4038    -2.0363 H       
@<TRIPOS>BOND
   1    1    2 ar
   2    1    6 ar
   3    1   34 1
   4    2    3 ar
   5    2   35 1
   6    3    4 ar
   7    3    8 1
   8    4    5 ar
   9    4    7 1
  10    5    6 ar
  11    5   36 1
  12    6   20 1
  13    7    9 1
  14    8    9 1
  15    8   11 1
  16    8   12 1
  17    9   37 1
  18    9   38 1
  19   10   11 ar
  20   10   13 1
  21   10   18 ar
  22   11   15 ar
  23   12   13 am
  24   12   14 2
  25   13   19 1
  26   15   16 ar
  27   15   39 1
  28   16   17 ar
  29   16   40 1
  30   17   18 ar
  31   17   41 1
  32   18   42 1
  33   19   22 1
  34   19   28 1
  35   19   43 1
  36   20   21 1
  37   21   44 1
  38   21   45 1
  39   21   46 1
  40   22   23 ar
  41   22   27 ar
  42   23   24 ar
  43   23   47 1
  44   24   25 ar
  45   24   48 1
  46   25   26 ar
  47   25   49 1
  48   26   27 ar
  49   26   50 1
  50   27   51 1
  51   28   29 ar
  52   28   33 ar
  53   29   30 ar
  54   29   52 1
  55   30   31 ar
  56   30   53 1
  57   31   32 ar
  58   31   54 1
  59   32   33 ar
  60   32   55 1
  61   33   56 1

#	End of record

