#	Name: ASD05720030
#	Creating user name:	WinNT
#	Creation time:	15. 06. 2019 21:01

#	Modifying user name:	WinNT
#	Modification time:	15. 06. 2019 21:01

#	Program:	/corina/corina34_cracker 3.40 0067  02.08.2006

@<TRIPOS>MOLECULE
ASD05720030
  55   60    0    0    0
SMALL
NO_CHARGES


@<TRIPOS>ATOM
   1 O1             0.6852     1.1343     1.4949 O.3     
   2 C2             0.7492    -0.2007     1.4406 C.2     
   3 N3             1.4212    -0.6685     0.3798 N.am    
   4 C4             1.8959     0.4693    -0.4225 C.3     
   5 C5             1.3862     1.7012     0.3503 C.3     
   6 O6             0.2444    -0.9232     2.2769 O.2     
   7 C7             3.0095    -3.6812    -0.7180 C.2     
   8 N8             2.7868    -2.3951    -0.4299 N.2     
   9 C9             1.6353    -2.0088     0.0863 C.2     
  10 C10            0.6227    -2.9561     0.3403 C.2     
  11 C11            0.8446    -4.2583     0.0501 C.2     
  12 N12            2.0477    -4.6280    -0.4839 N.pl3   
  13 N13            2.5595    -5.8687    -0.8800 N.2     
  14 C14            3.7769    -5.7085    -1.3377 C.2     
  15 C15            4.1121    -4.3510    -1.2651 C.2     
  16 C16            5.3921    -3.7383    -1.6859 C.ar    
  17 C17            6.5891    -4.1481    -1.0963 C.ar    
  18 C18            7.7813    -3.5766    -1.4890 C.ar    
  19 C19            7.7894    -2.5882    -2.4765 C.ar    
  20 C20            6.5928    -2.1801    -3.0644 C.ar    
  21 C21            5.4028    -2.7547    -2.6765 C.ar    
  22 N22           10.5795    -0.7499    -3.8952 N.pl3   
  23 N23            9.2074    -1.0377    -3.8140 N.2     
  24 C24            9.0707    -1.9729    -2.8990 C.2     
  25 N25           10.2816    -2.2773    -2.4121 N.2     
  26 C26           11.1917    -1.5492    -3.0033 C.2     
  27 F27            8.9405    -3.9719    -0.9189 F       
  28 C28            1.2895     0.4270    -1.8266 C.3     
  29 C29            1.6358     1.7182    -2.5708 C.3     
  30 C30            1.0295     1.6758    -3.9749 C.3     
  31 C31            1.5972     0.4785    -4.7397 C.3     
  32 C32            1.2509    -0.8127    -3.9955 C.3     
  33 C33            1.8572    -0.7704    -2.5914 C.3     
  34 H34            2.9846     0.4735    -0.4745 H       
  35 H35            0.7018     2.2832    -0.2670 H       
  36 H36            2.2221     2.3175     0.6811 H       
  37 H37           -0.3212    -2.6450     0.7630 H       
  38 H38            0.0804    -4.9977     0.2385 H       
  39 H39            4.4157    -6.4944    -1.7128 H       
  40 H40            6.5817    -4.9119    -0.3328 H       
  41 H41            6.5995    -1.4161    -3.8277 H       
  42 H42            4.4770    -2.4411    -3.1356 H       
  43 H43           11.0031    -0.1042    -4.4823 H       
  44 H44           12.2535    -1.5835    -2.8090 H       
  45 H45            0.2064     0.3300    -1.7519 H       
  46 H46            1.2314     2.5712    -2.0260 H       
  47 H47            2.7189     1.8152    -2.6455 H       
  48 H48           -0.0536     1.5788    -3.9002 H       
  49 H49            1.2762     2.5957    -4.5051 H       
  50 H50            1.1652     0.4483    -5.7400 H       
  51 H51            2.6803     0.5755    -4.8144 H       
  52 H52            0.1678    -0.9097    -3.9207 H       
  53 H53            1.6554    -1.6658    -4.5403 H       
  54 H54            2.9403    -0.6734    -2.6661 H       
  55 H55            1.6106    -1.6903    -2.0612 H       
@<TRIPOS>BOND
   1    1    2 1
   2    1    5 1
   3    2    3 am
   4    2    6 2
   5    3    4 1
   6    3    9 1
   7    4    5 1
   8    4   28 1
   9    4   34 1
  10    5   35 1
  11    5   36 1
  12    7    8 1
  13    7   12 1
  14    7   15 2
  15    8    9 2
  16    9   10 1
  17   10   11 2
  18   10   37 1
  19   11   12 1
  20   11   38 1
  21   12   13 1
  22   13   14 2
  23   14   15 1
  24   14   39 1
  25   15   16 1
  26   16   17 ar
  27   16   21 ar
  28   17   18 ar
  29   17   40 1
  30   18   19 ar
  31   18   27 1
  32   19   20 ar
  33   19   24 1
  34   20   21 ar
  35   20   41 1
  36   21   42 1
  37   22   23 1
  38   22   26 1
  39   22   43 1
  40   23   24 2
  41   24   25 1
  42   25   26 2
  43   26   44 1
  44   28   29 1
  45   28   33 1
  46   28   45 1
  47   29   30 1
  48   29   46 1
  49   29   47 1
  50   30   31 1
  51   30   48 1
  52   30   49 1
  53   31   32 1
  54   31   50 1
  55   31   51 1
  56   32   33 1
  57   32   52 1
  58   32   53 1
  59   33   54 1
  60   33   55 1

#	End of record

