#	Name: ASD01208012
#	Creating user name:	WinNT
#	Creation time:	15. 06. 2019 19:09

#	Modifying user name:	WinNT
#	Modification time:	15. 06. 2019 19:09

#	Program:	/corina/corina34_cracker 3.40 0067  02.08.2006

@<TRIPOS>MOLECULE
ASD01208012
  64   67    0    0    0
SMALL
NO_CHARGES


@<TRIPOS>ATOM
   1 C1            -0.0846     1.4338     0.0273 C.ar    
   2 C2             0.0181     0.0509    -0.0133 C.ar    
   3 C3            -1.1251    -0.7353     0.0264 C.ar    
   4 C4            -2.3737    -0.1415     0.1067 C.ar    
   5 C5            -2.4813     1.2494     0.1482 C.ar    
   6 C6            -1.3292     2.0357     0.1134 C.ar    
   7 C7            -3.8117     1.8875     0.2335 C.2     
   8 C8            -4.0544     3.2302     0.2803 C.2     
   9 N9            -5.0152     1.2343     0.2734 N.pl3   
  10 C10           -6.0155     2.1705     0.3514 C.2     
  11 C11           -5.4390     3.4082     0.3567 C.2     
  12 O12            1.0379     2.1989    -0.0119 O.3     
  13 C13            0.8560     3.6141    -0.0911 C.3     
  14 C14            2.0901     4.2518    -0.7324 C.3     
  15 O15            3.2212     4.0633     0.1203 O.3     
  16 C16            0.6609     4.1827     1.3158 C.3     
  17 O17           -1.0191    -2.0894    -0.0141 O.3     
  18 C18           -1.4881    -2.7334    -1.1149 C.ar    
  19 C19           -1.9388    -2.0053    -2.2067 C.ar    
  20 C20           -1.5119    -4.1203    -1.1513 C.ar    
  21 C21           -1.9887    -4.7725    -2.2718 C.ar    
  22 C22           -2.4421    -4.0445    -3.3564 C.ar    
  23 C23           -2.4147    -2.6625    -3.3247 C.ar    
  24 S24           -3.0492    -4.8796    -4.7842 S.o2    
  25 C25           -4.8237    -5.0849    -4.4683 C.3     
  26 O26           -2.8349    -3.9597    -5.8458 O.2     
  27 O27           -2.3897    -6.1381    -4.7610 O.2     
  28 C28            4.4327     4.6246    -0.3886 C.3     
  29 C29           -7.4634     1.8886     0.4142 C.ar    
  30 C30           -7.9136     0.5666     0.3960 C.ar    
  31 N31           -8.3284     2.8944     0.4931 N.ar    
  32 C32           -9.6278     2.6839     0.5510 C.ar    
  33 C33          -10.1412     1.4006     0.5315 C.ar    
  34 C34           -9.2728     0.3194     0.4555 C.ar    
  35 C35          -11.6299     1.1764     0.5989 C.3     
  36 O36          -12.1685     1.1531    -0.7245 O.3     
  37 H37            0.9903    -0.4152    -0.0764 H       
  38 H38           -3.2628    -0.7538     0.1369 H       
  39 H39           -1.4081     3.1123     0.1457 H       
  40 H40           -3.3110     4.0134     0.2616 H       
  41 H41           -5.1393     0.2725     0.2504 H       
  42 H42           -5.9585     4.3535     0.4102 H       
  43 H43           -0.0230     3.8341    -0.6970 H       
  44 H44            2.2808     3.7835    -1.6979 H       
  45 H45            1.9157     5.3184    -0.8741 H       
  46 H46           -0.2183     3.7284     1.7727 H       
  47 H47            1.5399     3.9628     1.9217 H       
  48 H48            0.5221     5.2622     1.2554 H       
  49 H49           -1.9179    -0.9258    -2.1824 H       
  50 H50           -1.1575    -4.6893    -0.3045 H       
  51 H51           -2.0071    -5.8519    -2.3007 H       
  52 H52           -2.7697    -2.0962    -4.1730 H       
  53 H53           -5.2859    -4.1059    -4.3422 H       
  54 H54           -5.2857    -5.5990    -5.3111 H       
  55 H55           -4.9656    -5.6732    -3.5617 H       
  56 H56            5.2432     4.4392     0.3162 H       
  57 H57            4.6721     4.1640    -1.3470 H       
  58 H58            4.3069     5.6990    -0.5232 H       
  59 H59           -7.2103    -0.2509     0.3359 H       
  60 H60          -10.3013     3.5259     0.6148 H       
  61 H61           -9.6510    -0.6921     0.4390 H       
  62 H62          -11.8321     0.2247     1.0903 H       
  63 H63          -12.0936     1.9838     1.1657 H       
  64 H64          -13.1246     1.0124    -0.7576 H       
@<TRIPOS>BOND
   1    1    2 ar
   2    1   12 1
   3    1    6 ar
   4    2    3 ar
   5    2   37 1
   6    3    4 ar
   7    3   17 1
   8    4    5 ar
   9    4   38 1
  10    5    6 ar
  11    5    7 1
  12    6   39 1
  13    7    8 2
  14    7    9 1
  15    8   11 1
  16    8   40 1
  17    9   10 1
  18    9   41 1
  19   10   11 2
  20   10   29 1
  21   11   42 1
  22   12   13 1
  23   13   14 1
  24   13   16 1
  25   13   43 1
  26   14   15 1
  27   14   44 1
  28   14   45 1
  29   15   28 1
  30   16   46 1
  31   16   47 1
  32   16   48 1
  33   17   18 1
  34   18   19 ar
  35   18   20 ar
  36   19   23 ar
  37   19   49 1
  38   20   21 ar
  39   20   50 1
  40   21   22 ar
  41   21   51 1
  42   22   23 ar
  43   22   24 1
  44   23   52 1
  45   24   25 1
  46   24   26 2
  47   24   27 2
  48   25   53 1
  49   25   54 1
  50   25   55 1
  51   28   56 1
  52   28   57 1
  53   28   58 1
  54   29   30 ar
  55   29   31 ar
  56   30   34 ar
  57   30   59 1
  58   31   32 ar
  59   32   33 ar
  60   32   60 1
  61   33   34 ar
  62   33   35 1
  63   34   61 1
  64   35   36 1
  65   35   62 1
  66   35   63 1
  67   36   64 1

#	End of record

