#	Name: ASD01150410
#	Creating user name:	WinNT
#	Creation time:	15. 06. 2019 19:04

#	Modifying user name:	WinNT
#	Modification time:	15. 06. 2019 19:04

#	Program:	/corina/corina34_cracker 3.40 0067  02.08.2006

@<TRIPOS>MOLECULE
ASD01150410
  56   59    0    0    0
SMALL
NO_CHARGES


@<TRIPOS>ATOM
   1 C1            -0.0859     0.8069     1.3643 C.ar    
   2 C2            -0.1893    -0.5449     1.6286 C.ar    
   3 C3             0.6174    -1.4463     0.9605 C.ar    
   4 C4             1.5353    -0.9953     0.0205 C.ar    
   5 C5             1.6415     0.3620    -0.2477 C.ar    
   6 C6             0.8300     1.2646     0.4248 C.ar    
   7 N7             0.9340     2.6345     0.1573 N.am    
   8 C8            -0.1781     3.3479    -0.0936 C.2     
   9 N9            -0.1117     4.6670    -0.3540 N.am    
  10 C10            1.0831     5.2935    -0.3667 C.2     
  11 C11            2.2979     4.5206    -0.0940 C.2     
  12 N12            2.1937     3.2452     0.1600 N.2     
  13 O13            1.1512     6.4857    -0.6021 O.2     
  14 C14           -1.3374     5.4225    -0.6243 C.3     
  15 O15           -1.2600     2.7929    -0.0855 O.2     
  16 C16           -1.8905     5.9620     0.6696 C.ar    
  17 C17           -1.5043     7.2059     1.1309 C.ar    
  18 N18           -1.9840     7.6847     2.2623 N.ar    
  19 C19           -2.8444     7.0040     2.9938 C.ar    
  20 C20           -3.2768     5.7530     2.5955 C.ar    
  21 C21           -2.7980     5.2188     1.4093 C.ar    
  22 N22            2.3524    -1.9087    -0.6549 N.am    
  23 C23            1.8816    -3.1329    -0.9649 C.2     
  24 O24            0.7232    -3.4123    -0.7390 O.2     
  25 C25            2.7946    -4.1546    -1.5922 C.3     
  26 C26            3.6477     5.1906    -0.1011 C.3     
  27 C27           -3.3618     7.5966     4.2791 C.3     
  28 C28           -4.8327     7.1967     4.4893 C.3     
  29 C29           -4.8883     6.3987     5.8084 C.3     
  30 C30           -3.6394     6.8730     6.5922 C.3     
  31 C31           -2.5748     7.0276     5.4778 C.3     
  32 H32           -0.7206     1.5084     1.8852 H       
  33 H33           -0.9020    -0.8982     2.3592 H       
  34 H34            0.5343    -2.5026     1.1696 H       
  35 H35            2.3546     0.7152    -0.9778 H       
  36 H36           -1.1130     6.2505    -1.2968 H       
  37 H37           -2.0736     4.7665    -1.0887 H       
  38 H38           -0.8010     7.7927     0.5586 H       
  39 H39           -3.9813     5.2001     3.1992 H       
  40 H40           -3.1183     4.2437     1.0731 H       
  41 H41            3.2576    -1.6607    -0.8999 H       
  42 H42            3.7887    -3.7253    -1.7175 H       
  43 H43            2.8561    -5.0314    -0.9476 H       
  44 H44            2.3995    -4.4461    -2.5654 H       
  45 H45            3.8774     5.5557     0.8999 H       
  46 H46            4.4079     4.4730    -0.4095 H       
  47 H47            3.6340     6.0279    -0.7989 H       
  48 H48           -3.2701     8.6824     4.2529 H       
  49 H49           -5.4548     8.0885     4.5660 H       
  50 H50           -5.1723     6.5741     3.6616 H       
  51 H51           -5.7979     6.6364     6.3600 H       
  52 H52           -4.8303     5.3286     5.6096 H       
  53 H53           -3.8296     7.8290     7.0801 H       
  54 H54           -3.3313     6.1216     7.3192 H       
  55 H55           -2.1432     6.0590     5.2256 H       
  56 H56           -1.7961     7.7242     5.7882 H       
@<TRIPOS>BOND
   1    1    2 ar
   2    1    6 ar
   3    1   32 1
   4    2    3 ar
   5    2   33 1
   6    3    4 ar
   7    3   34 1
   8    4    5 ar
   9    4   22 1
  10    5    6 ar
  11    5   35 1
  12    6    7 1
  13    7    8 am
  14    7   12 1
  15    8    9 am
  16    8   15 2
  17    9   10 am
  18    9   14 1
  19   10   11 1
  20   10   13 2
  21   11   12 2
  22   11   26 1
  23   14   16 1
  24   14   36 1
  25   14   37 1
  26   16   17 ar
  27   16   21 ar
  28   17   18 ar
  29   17   38 1
  30   18   19 ar
  31   19   20 ar
  32   19   27 1
  33   20   21 ar
  34   20   39 1
  35   21   40 1
  36   22   23 am
  37   22   41 1
  38   23   24 2
  39   23   25 1
  40   25   42 1
  41   25   43 1
  42   25   44 1
  43   26   45 1
  44   26   46 1
  45   26   47 1
  46   27   28 1
  47   27   31 1
  48   27   48 1
  49   28   29 1
  50   28   49 1
  51   28   50 1
  52   29   30 1
  53   29   51 1
  54   29   52 1
  55   30   31 1
  56   30   53 1
  57   30   54 1
  58   31   55 1
  59   31   56 1

#	End of record

