#	Name: ASD01940376
#	Creating user name:	WinNT
#	Creation time:	15. 06. 2019 20:12

#	Modifying user name:	WinNT
#	Modification time:	15. 06. 2019 20:12

#	Program:	/corina/corina34_cracker 3.40 0067  02.08.2006

@<TRIPOS>MOLECULE
ASD01940376
  34   35    0    0    0
SMALL
NO_CHARGES


@<TRIPOS>ATOM
   1 F1             1.8933     1.6269     2.2872 F       
   2 C2             1.0568     2.1671     1.3743 C.ar    
   3 C3             1.3856     2.1349     0.0255 C.ar    
   4 C4             0.5190     2.6933    -0.9127 C.ar    
   5 C5            -0.6672     3.2781    -0.4953 C.ar    
   6 C6            -0.9895     3.3072     0.8491 C.ar    
   7 C7            -0.1329     2.7487     1.7824 C.ar    
   8 N8             2.5858     1.5431    -0.3912 N.pl3   
   9 N9             0.8459     2.6641    -2.2750 N.am    
  10 C10            2.6325     0.1736    -0.6601 C.ar    
  11 C11            1.4744    -0.5899    -0.5747 C.ar    
  12 C12            1.5172    -1.9423    -0.8391 C.ar    
  13 C13            2.7248    -2.5457    -1.1934 C.ar    
  14 C14            3.8878    -1.7773    -1.2793 C.ar    
  15 C15            3.8386    -0.4237    -1.0189 C.ar    
  16 F16            4.9627     0.3211    -1.1015 F       
  17 C17            2.7713    -3.9504    -1.4679 C.1     
  18 F18           -0.4551     2.7754     3.0942 F       
  19 S19            0.4302     3.9336    -3.2537 S.o2    
  20 C20            1.2760     5.3631    -2.5245 C.3     
  21 O21            1.0002     3.6062    -4.5135 O.2     
  22 O22           -0.9769     4.0524    -3.0949 O.2     
  23 C23            2.8094    -5.1020    -1.6930 C.1     
  24 H24           -1.3397     3.7115    -1.2208 H       
  25 H25           -1.9138     3.7633     1.1715 H       
  26 H26            3.3840     2.0849    -0.4928 H       
  27 H27            1.3157     1.9002    -2.6447 H       
  28 H28            0.5398    -0.1233    -0.3006 H       
  29 H29            0.6166    -2.5346    -0.7717 H       
  30 H30            4.8237    -2.2415    -1.5532 H       
  31 H31            2.3516     5.1864    -2.5219 H       
  32 H32            1.0556     6.2543    -3.1120 H       
  33 H33            0.9291     5.5075    -1.5013 H       
  34 H34            2.8436    -6.1320    -1.8943 H       
@<TRIPOS>BOND
   1    1    2 1
   2    2    3 ar
   3    2    7 ar
   4    3    4 ar
   5    3    8 1
   6    4    5 ar
   7    4    9 1
   8    5    6 ar
   9    5   24 1
  10    6    7 ar
  11    6   25 1
  12    7   18 1
  13    8   10 1
  14    8   26 1
  15    9   19 am
  16    9   27 1
  17   10   11 ar
  18   10   15 ar
  19   11   12 ar
  20   11   28 1
  21   12   13 ar
  22   12   29 1
  23   13   14 ar
  24   13   17 1
  25   14   15 ar
  26   14   30 1
  27   15   16 1
  28   17   23 3
  29   19   20 1
  30   19   21 2
  31   19   22 2
  32   20   31 1
  33   20   32 1
  34   20   33 1
  35   23   34 1

#	End of record

