#	Name: ASD01812514
#	Creating user name:	WinNT
#	Creation time:	15. 06. 2019 19:28

#	Modifying user name:	WinNT
#	Modification time:	15. 06. 2019 19:28

#	Program:	/corina/corina34_cracker 3.40 0067  02.08.2006

@<TRIPOS>MOLECULE
ASD01812514
  55   60    0    0    0
SMALL
NO_CHARGES


@<TRIPOS>ATOM
   1 C1            -0.0634     1.4565     0.0108 C.ar    
   2 C2            -0.0562    -0.0035     0.0039 C.ar    
   3 C3            -1.2949    -0.6897    -0.0242 C.ar    
   4 C4            -2.5022     0.0398    -0.0446 C.ar    
   5 C5            -2.5024     1.3940    -0.0381 C.ar    
   6 C6            -1.3029     2.1225    -0.0049 C.ar    
   7 C7            -1.2984    -2.0930    -0.0310 C.ar    
   8 C8            -0.1170    -2.7725    -0.0105 C.ar    
   9 C9             1.0979    -2.0953     0.0172 C.ar    
  10 C10            1.1378    -0.7315     0.0250 C.ar    
  11 N11            1.0719     2.1743     0.0370 N.2     
  12 C12            1.0589     3.4753     0.0429 C.2     
  13 N13           -0.0872     4.2057     0.0238 N.am    
  14 C14           -1.2924     3.5905     0.0022 C.2     
  15 C15           -3.8143    -0.7008    -0.0745 C.3     
  16 C16           -4.2191    -1.0627     1.3313 C.ar    
  17 C17           -3.8164    -2.2611     1.8868 C.ar    
  18 C18           -4.9958    -0.1926     2.0835 C.ar    
  19 C19           -5.3452    -0.5641     3.3704 C.ar    
  20 C20           -4.9094    -1.7875     3.8624 C.ar    
  21 N21           -4.1657    -2.5876     3.1164 N.ar    
  22 O22           -2.3286     4.2302    -0.0109 O.2     
  23 O23           -5.2447    -2.1629     5.1223 O.3     
  24 C24           -4.7658    -3.4327     5.5700 C.3     
  25 C25           -0.0210     5.5961     0.0321 C.2     
  26 N26           -0.0700     6.3944     1.1213 N.pl3   
  27 N27            0.0280     7.7241     0.6962 N.2     
  28 C28            0.1335     7.7470    -0.6052 C.2     
  29 C29            0.1133     6.4184    -1.0732 C.2     
  30 C30            0.2133     5.9827    -2.4855 C.ar    
  31 C31            0.2294     6.9354    -3.5040 C.ar    
  32 C32            0.3232     6.5130    -4.8175 C.ar    
  33 C33            0.3980     5.1499    -5.0722 C.ar    
  34 C34            0.3769     4.2604    -4.0152 C.ar    
  35 N35            0.2923     4.6889    -2.7714 N.ar    
  36 H36           -3.4435     1.9236    -0.0549 H       
  37 H37           -2.2337    -2.6325    -0.0520 H       
  38 H38           -0.1242    -3.8525    -0.0154 H       
  39 H39            2.0208    -2.6560     0.0335 H       
  40 H40            2.0868    -0.2165     0.0468 H       
  41 H41            2.0029     3.9994     0.0643 H       
  42 H42           -4.5797    -0.0659    -0.5209 H       
  43 H43           -3.7053    -1.6094    -0.6665 H       
  44 H44           -3.2082    -2.9397     1.3073 H       
  45 H45           -5.3199     0.7529     1.6743 H       
  46 H46           -5.9483     0.0889     3.9837 H       
  47 H47           -5.1513    -4.2168     4.9183 H       
  48 H48           -3.6762    -3.4404     5.5423 H       
  49 H49           -5.1046    -3.6094     6.5908 H       
  50 H50           -0.1581     6.0967     2.0403 H       
  51 H51            0.2252     8.6322    -1.2171 H       
  52 H52            0.1692     7.9880    -3.2702 H       
  53 H53            0.3376     7.2274    -5.6274 H       
  54 H54            0.4717     4.7884    -6.0872 H       
  55 H55            0.4350     3.1998    -4.2104 H       
@<TRIPOS>BOND
   1    1    2 ar
   2    1   11 1
   3    1    6 ar
   4    2   10 ar
   5    2    3 ar
   6    3    4 ar
   7    3    7 ar
   8    4    5 ar
   9    4   15 1
  10    5    6 ar
  11    5   36 1
  12    6   14 1
  13    7    8 ar
  14    7   37 1
  15    8    9 ar
  16    8   38 1
  17    9   10 ar
  18    9   39 1
  19   10   40 1
  20   11   12 2
  21   12   13 1
  22   12   41 1
  23   13   14 am
  24   13   25 1
  25   14   22 2
  26   15   16 1
  27   15   42 1
  28   15   43 1
  29   16   18 ar
  30   16   17 ar
  31   17   21 ar
  32   17   44 1
  33   18   19 ar
  34   18   45 1
  35   19   20 ar
  36   19   46 1
  37   20   21 ar
  38   20   23 1
  39   23   24 1
  40   24   47 1
  41   24   48 1
  42   24   49 1
  43   25   26 1
  44   25   29 2
  45   26   27 1
  46   26   50 1
  47   27   28 2
  48   28   29 1
  49   28   51 1
  50   29   30 1
  51   30   31 ar
  52   30   35 ar
  53   31   32 ar
  54   31   52 1
  55   32   33 ar
  56   32   53 1
  57   33   34 ar
  58   33   54 1
  59   34   35 ar
  60   34   55 1

#	End of record

