#	Name: ASD04570039
#	Creating user name:	WinNT
#	Creation time:	15. 06. 2019 20:49

#	Modifying user name:	WinNT
#	Modification time:	15. 06. 2019 20:49

#	Program:	/corina/corina34_cracker 3.40 0067  02.08.2006

@<TRIPOS>MOLECULE
ASD04570039
 329  330    0    0    0
SMALL
NO_CHARGES


@<TRIPOS>ATOM
   1 C1            -0.0187     1.5258     0.0104 C.3     
   2 C2             0.0021    -0.0041     0.0020 C.3     
   3 C3            -1.4333    -0.5336     0.0129 C.3     
   4 C4            -1.4126    -2.0635     0.0045 C.3     
   5 C5            -2.8479    -2.5931     0.0153 C.3     
   6 C6            -2.8272    -4.1229     0.0069 C.3     
   7 C7            -4.2626    -4.6525     0.0178 C.3     
   8 C8            -4.2418    -6.1823     0.0094 C.3     
   9 C9            -5.6772    -6.7119     0.0202 C.3     
  10 C10           -5.6565    -8.2417     0.0118 C.3     
  11 C11           -7.0918    -8.7713     0.0227 C.3     
  12 C12           -7.0711   -10.3012     0.0143 C.3     
  13 C13           -8.5065   -10.8307     0.0251 C.3     
  14 C14           -8.4857   -12.3606     0.0167 C.3     
  15 C15           -9.8995   -12.8822     0.0274 C.2     
  16 N16          -10.1278   -14.2105     0.0224 N.am    
  17 O17          -10.8319   -12.1067     0.0405 O.2     
  18 C18          -11.5022   -14.7176     0.0328 C.3     
  19 C19          -11.4818   -16.2244     0.0246 C.2     
  20 N20          -12.6397   -16.9141     0.0319 N.am    
  21 O21          -10.4234   -16.8164     0.0113 O.2     
  22 C22          -12.6198   -18.3789     0.0239 C.3     
  23 C23          -14.0336   -18.9006     0.0345 C.2     
  24 N24          -14.2619   -20.2288     0.0296 N.am    
  25 O25          -14.9660   -18.1251     0.0476 O.2     
  26 C26          -15.6363   -20.7359     0.0400 C.3     
  27 C27          -15.6677   -22.1146    -0.5676 C.2     
  28 O28          -14.6429   -22.6236    -0.9697 O.2     
  29 N29          -16.8345   -22.7821    -0.6641 N.am    
  30 C30          -16.1445   -20.8022     1.4816 C.3     
  31 C31          -16.2295   -19.4087     2.0489 C.ar    
  32 C32          -17.3963   -18.6790     1.9152 C.ar    
  33 C33          -16.8650   -24.1224    -1.2548 C.3     
  34 C34          -16.9741   -24.0068    -2.7765 C.3     
  35 C35          -18.0543   -24.8792    -0.7220 C.2     
  36 O36          -18.8028   -24.3511     0.0728 O.2     
  37 N37          -18.2862   -26.1430    -1.1288 N.am    
  38 C38          -15.7083   -23.3492    -3.3300 C.3     
  39 C39          -15.8157   -23.2353    -4.8289 C.2     
  40 N40          -14.8101   -22.6835    -5.5365 N.am    
  41 C41          -19.4424   -26.8788    -0.6109 C.3     
  42 C42          -20.6788   -26.5390    -1.4457 C.3     
  43 C43          -19.1730   -28.3593    -0.6918 C.2     
  44 O44          -18.1191   -28.7604    -1.1381 O.2     
  45 N45          -20.1034   -29.2376    -0.2681 N.am    
  46 C46          -19.8415   -30.6769    -0.3467 C.3     
  47 C47          -20.6853   -31.4067     0.7003 C.3     
  48 C48          -20.2076   -31.1864    -1.7421 C.3     
  49 C49          -20.2332   -30.9890     2.1011 C.3     
  50 C50          -21.0770   -31.7188     3.1481 C.3     
  51 C51          -17.4766   -17.4013     2.4344 C.ar    
  52 C52          -16.3853   -16.8505     3.0903 C.ar    
  53 C53          -15.2157   -17.5846     3.2231 C.ar    
  54 C54          -15.1423   -18.8640     2.7071 C.ar    
  55 O55          -16.4617   -15.5936     3.6015 O.3     
  56 O56          -16.8070   -23.6402    -5.3983 O.2     
  57 C57          -20.6250   -31.3010     4.5488 C.3     
  58 N58          -21.4351   -32.0018     5.5541 N.3     
  59 C59            1.4167     2.0553    -0.0004 C.3     
  60 H60           -9.3821   -14.8307     0.0120 H       
  61 C61          -21.0259   -25.0600    -1.2644 C.3     
  62 C62          -22.2623   -24.7202    -2.0992 C.3     
  63 C63          -22.6093   -23.2412    -1.9179 C.3     
  64 N64          -23.7964   -22.9150    -2.7194 N.3     
  65 H65           -0.5459     1.8868    -0.8726 H       
  66 H66           -0.5289     1.8773     0.9072 H       
  67 H67            0.5123    -0.3556    -0.8948 H       
  68 H68            0.5293    -0.3651     0.8851 H       
  69 H69           -1.9435    -0.1821     0.9097 H       
  70 H70           -1.9605    -0.1726    -0.8702 H       
  71 H71           -0.9024    -2.4150    -0.8923 H       
  72 H72           -0.8854    -2.4246     0.8875 H       
  73 H73           -3.3581    -2.2415     0.9121 H       
  74 H74           -3.3751    -2.2320    -0.8677 H       
  75 H75           -2.3170    -4.4744    -0.8899 H       
  76 H76           -2.3000    -4.4840     0.8900 H       
  77 H77           -4.7728    -4.3010     0.9146 H       
  78 H78           -4.7898    -4.2914    -0.8653 H       
  79 H79           -3.7316    -6.5338    -0.8874 H       
  80 H80           -3.7146    -6.5434     0.8924 H       
  81 H81           -6.1874    -6.3604     0.9170 H       
  82 H82           -6.2044    -6.3508    -0.8628 H       
  83 H83           -5.1463    -8.5933    -0.8850 H       
  84 H84           -5.1293    -8.6028     0.8949 H       
  85 H85           -7.6020    -8.4198     0.9195 H       
  86 H86           -7.6190    -8.4102    -0.8604 H       
  87 H87           -6.5609   -10.6527    -0.8825 H       
  88 H88           -6.5439   -10.6622     0.8973 H       
  89 H89           -9.0167   -10.4792     0.9219 H       
  90 H90           -9.0337   -10.4697    -0.8579 H       
  91 H91           -7.9755   -12.7121    -0.8801 H       
  92 H92           -7.9586   -12.7217     0.8998 H       
  93 H93          -12.0124   -14.3660     0.9296 H       
  94 H94          -12.0294   -14.3565    -0.8502 H       
  95 H95          -13.4862   -16.4406     0.0425 H       
  96 H96          -12.1096   -18.7305    -0.8729 H       
  97 H97          -12.0926   -18.7400     0.9069 H       
  98 H98          -13.5162   -20.8491     0.0191 H       
  99 H99          -16.2741   -20.0688    -0.5398 H       
 100 H100         -17.6542   -22.3751    -0.3425 H       
 101 H101         -17.1328   -21.2619     1.4977 H       
 102 H102         -15.4570   -21.3977     2.0822 H       
 103 H103         -18.2455   -19.1081     1.4042 H       
 104 H104         -15.9498   -24.6547    -0.9955 H       
 105 H105         -17.0861   -25.0009    -3.2094 H       
 106 H106         -17.8415   -23.3988    -3.0335 H       
 107 H107         -17.6876   -26.5655    -1.7645 H       
 108 H108         -15.5963   -22.3552    -2.8972 H       
 109 H109         -14.8409   -23.9573    -3.0731 H       
 110 H110         -14.0173   -22.3597    -5.0811 H       
 111 H111         -14.8793   -22.6102    -6.5013 H       
 112 H112         -19.6166   -26.5973     0.4276 H       
 113 H113         -20.4729   -26.7376    -2.4975 H       
 114 H114         -21.5183   -27.1521    -1.1177 H       
 115 H115         -20.9463   -28.9168     0.0889 H       
 116 H116         -18.7847   -30.8648    -0.1570 H       
 117 H117         -21.7355   -31.1480     0.5652 H       
 118 H118         -20.5582   -32.4830     0.5835 H       
 119 H119         -19.6064   -30.6665    -2.4881 H       
 120 H120         -20.0127   -32.2573    -1.8006 H       
 121 H121         -21.2644   -30.9985    -1.9319 H       
 122 H122         -19.1830   -31.2476     2.2362 H       
 123 H123         -20.3603   -29.9127     2.2179 H       
 124 H124         -22.1272   -31.4601     3.0130 H       
 125 H125         -20.9500   -32.7950     3.0312 H       
 126 H126         -18.3881   -16.8317     2.3294 H       
 127 H127         -14.3647   -17.1580     3.7332 H       
 128 H128         -14.2321   -19.4361     2.8105 H       
 129 H129         -16.7777   -15.5590     4.5147 H       
 130 H130         -19.5748   -31.5597     4.6839 H       
 131 H131         -20.7520   -30.2248     4.6657 H       
 132 H132         -21.3852   -33.0013     5.4260 H       
 133 H133         -21.1557   -31.7426     6.4884 H       
 134 H134           1.4019     3.1452     0.0056 H       
 135 H135           1.9439     1.6943     0.8826 H       
 136 H136           1.9269     1.7038    -0.8972 H       
 137 H137         -21.2318   -24.8614    -0.2126 H       
 138 H138         -20.1864   -24.4469    -1.5923 H       
 139 H139         -22.0563   -24.9188    -3.1509 H       
 140 H140         -23.1017   -25.3333    -1.7712 H       
 141 H141         -22.8153   -23.0426    -0.8661 H       
 142 H142         -21.7698   -22.6281    -2.2458 H       
 143 H143         -24.0461   -21.9428    -2.6165 H       
 144 H144         -23.6534   -23.1509    -3.6899 H       
 145 C145          22.6915    17.5435    15.7703 C.3     
 146 C146          21.8777    16.4089    16.3958 C.3     
 147 C147          20.4860    16.8988    16.7026 C.2     
 148 N148          21.8045    15.2859    15.4578 N.am    
 149 N149          20.3067    17.9327    17.5484 N.am    
 150 O150          19.5273    16.3626    16.1884 O.2     
 151 C151          18.9538    18.4089    17.8466 C.3     
 152 C152          19.0118    19.8542    18.2695 C.2     
 153 N153          17.8890    20.5997    18.2769 N.am    
 154 O154          20.0688    20.3465    18.6030 O.2     
 155 C155          17.9313    21.9827    18.7583 C.3     
 156 C156          16.8861    22.1749    19.8268 C.2     
 157 O157          16.1758    21.2479    20.1540 O.2     
 158 N158          16.7406    23.3769    20.4188 N.am    
 159 C159          15.7246    23.5637    21.4575 C.3     
 160 C160          14.3798    23.8870    20.8033 C.3     
 161 C161          16.1310    24.7009    22.3590 C.2     
 162 O162          17.1673    25.2967    22.1540 O.2     
 163 N163          15.3428    25.0559    23.3931 N.am    
 164 C164          15.7378    26.1614    24.2694 C.3     
 165 C165          16.6791    25.6390    25.3566 C.3     
 166 C166          14.5111    26.7571    24.9107 C.2     
 167 O167          13.4147    26.3029    24.6604 O.2     
 168 N168          14.6323    27.7945    25.7625 N.am    
 169 C169          13.4397    28.3736    26.3859 C.3     
 170 C170          13.8295    29.0498    27.7019 C.3     
 171 C171          12.8326    29.3937    25.4575 C.2     
 172 O172          13.3455    29.6152    24.3811 O.2     
 173 N173          11.7196    30.0598    25.8235 N.am    
 174 C174          14.3301    27.9937    28.6892 C.3     
 175 C175          14.7199    28.6699    30.0052 C.3     
 176 N176          15.1992    27.6587    30.9506 N.pl3   
 177 C177          15.6081    28.0329    32.2088 C.2     
 178 C178          18.3557    17.5702    18.9779 C.3     
 179 C179          16.9307    18.0463    19.2673 C.3     
 180 O180          18.3288    16.1955    18.5887 O.3     
 181 C181          17.6525    22.9364    17.5948 C.3     
 182 C182          18.7769    22.8513    16.5951 C.2     
 183 O183          18.7890    23.6651    15.5277 O.3     
 184 O184          19.6675    22.0504    16.7542 O.2     
 185 C185          13.9072    22.6825    19.9868 C.3     
 186 C186          12.5625    23.0059    19.3325 C.3     
 187 C187          12.0899    21.8014    18.5160 C.3     
 188 N188          10.7988    22.1118    17.8878 N.3     
 189 C189          17.9583    25.1554    24.7237 C.ar    
 190 C190          19.0167    26.0276    24.5506 C.ar    
 191 C191          18.0754    23.8381    24.3212 C.ar    
 192 C192          19.2488    23.3944    23.7406 C.ar    
 193 C193          20.3050    24.2681    23.5620 C.ar    
 194 C194          20.1901    25.5839    23.9700 C.ar    
 195 N195          16.0580    27.0839    33.0960 N.pl3   
 196 N196          15.5694    29.2874    32.5604 N.2     
 197 C197          11.1293    31.0515    24.9210 C.3     
 198 C198          11.8143    32.3795    25.1168 C.2     
 199 C199           9.6376    31.1968    25.2283 C.3     
 200 C200           8.9210    29.8829    24.9103 C.3     
 201 N201          11.4342    33.4476    24.3881 N.am    
 202 O202          12.7075    32.4870    25.9301 O.2     
 203 C203           7.4544    29.9864    25.3337 C.3     
 204 C204           8.9998    29.6099    23.4069 C.3     
 205 C205          22.7984    14.3766    15.4163 C.2     
 206 O206          23.7535    14.4880    16.1554 O.2     
 207 C207          22.7230    13.2214    14.4515 C.3     
 208 N208          23.9153    12.3729    14.5932 N.am    
 209 C209          24.6207    12.3289    13.2994 C.3     
 210 C210          24.1909    13.6257    12.5691 C.3     
 211 C211          22.7059    13.7490    13.0013 C.3     
 212 C212          24.3001    11.7407    15.7196 C.2     
 213 O213          25.3538    11.1409    15.7486 O.2     
 214 C214          23.4210    11.7790    16.9430 C.3     
 215 C215          22.2129    10.8641    16.7318 C.3     
 216 N216          24.1835    11.3203    18.1068 N.am    
 217 C217          23.8286    11.7184    19.3445 C.2     
 218 C218          21.2436    11.0204    17.9052 C.3     
 219 C219          20.0356    10.1055    17.6941 C.3     
 220 N220          19.1074    10.2551    18.8176 N.pl3   
 221 C221          17.9415     9.5271    18.8477 C.2     
 222 N222          17.1157     9.6602    19.8473 N.2     
 223 N223          17.6466     8.6588    17.8234 N.pl3   
 224 O224          22.8780    12.4565    19.4949 O.2     
 225 C225          24.6129    11.2465    20.5417 C.3     
 226 C226          26.0737    11.6777    20.3966 C.3     
 227 N227          24.0484    11.8356    21.7585 N.am    
 228 C228          24.2690    11.2537    22.9539 C.2     
 229 O229          25.0083    10.2956    23.0348 O.2     
 230 C230          23.5970    11.7933    24.1901 C.3     
 231 C231          26.1617    13.2045    20.4422 C.3     
 232 C232          27.6312    13.6305    20.4564 C.3     
 233 C233          25.4723    13.7922    19.2092 C.3     
 234 H234          23.6981    17.1892    15.5484 H       
 235 H235          22.2101    17.8707    14.8487 H       
 236 H236          22.7460    18.3791    16.4681 H       
 237 H237          22.3592    16.0817    17.3174 H       
 238 H238          21.0406    15.1968    14.8667 H       
 239 H239          21.0735    18.3614    17.9596 H       
 240 H240          18.3312    18.3154    16.9568 H       
 241 H241          17.0530    20.2206    17.9636 H       
 242 H242          18.9173    22.1933    19.1725 H       
 243 H243          17.3087    24.1184    20.1571 H       
 244 H244          15.6327    22.6498    22.0444 H       
 245 H245          13.6449    24.1132    21.5759 H       
 246 H246          14.4934    24.7494    20.1463 H       
 247 H247          14.5139    24.5794    23.5570 H       
 248 H248          16.2485    26.9253    23.6830 H       
 249 H249          16.9024    26.4412    26.0600 H       
 250 H250          16.2011    24.8146    25.8856 H       
 251 H251          15.5091    28.1578    25.9627 H       
 252 H252          12.7138    27.5849    26.5838 H       
 253 H253          14.6197    29.7773    27.5164 H       
 254 H254          12.9603    29.5564    28.1214 H       
 255 H255          11.3093    29.8827    26.6844 H       
 256 H256          13.5399    27.2662    28.8747 H       
 257 H257          15.1992    27.4871    28.2697 H       
 258 H258          15.5101    29.3974    29.8197 H       
 259 H259          13.8507    29.1765    30.4247 H       
 260 H260          15.2281    26.7251    30.6889 H       
 261 H261          18.9653    17.6821    19.8746 H       
 262 H262          16.3558    18.0561    18.3413 H       
 263 H263          16.4594    17.3699    19.9804 H       
 264 H264          16.9617    19.0520    19.6864 H       
 265 H265          19.1999    15.8260    18.3895 H       
 266 H266          16.7157    22.6573    17.1127 H       
 267 H267          17.5775    23.9566    17.9713 H       
 268 H268          19.5308    23.5735    14.9141 H       
 269 H269          14.6421    22.4564    19.2142 H       
 270 H270          13.7937    21.8202    20.6437 H       
 271 H271          11.8276    23.2320    20.1051 H       
 272 H272          12.6761    23.8682    18.6756 H       
 273 H273          12.8248    21.5752    17.7434 H       
 274 H274          11.9763    20.9390    19.1730 H       
 275 H275          10.8623    22.9461    17.3239 H       
 276 H276          10.4651    21.3313    17.3424 H       
 277 H277          18.9267    27.0557    24.8688 H       
 278 H278          17.2501    23.1555    24.4608 H       
 279 H279          19.3405    22.3651    23.4269 H       
 280 H280          21.2219    23.9214    23.1088 H       
 281 H281          21.0153    26.2665    23.8305 H       
 282 H282          16.0869    26.1503    32.8343 H       
 283 H283          16.3465    27.3479    33.9837 H       
 284 H284          15.8579    29.5514    33.4481 H       
 285 H285          11.2576    30.7252    23.8889 H       
 286 H286           9.5057    31.4364    26.2834 H       
 287 H287           9.2173    31.9967    24.6187 H       
 288 H288           9.3992    29.0676    25.4532 H       
 289 H289          10.7198    33.3616    23.7375 H       
 290 H290          11.8751    34.3024    24.5141 H       
 291 H291           6.9762    30.8017    24.7908 H       
 292 H292           6.9439    29.0504    25.1071 H       
 293 H293           7.3983    30.1809    26.4047 H       
 294 H294          10.0446    29.5361    23.1053 H       
 295 H295           8.4893    28.6738    23.1804 H       
 296 H296           8.5216    30.4252    22.8641 H       
 297 H297          21.8252    12.6346    14.6455 H       
 298 H298          25.6994    12.3212    13.4556 H       
 299 H299          24.3128    11.4525    12.7291 H       
 300 H300          24.7713    14.4804    12.9166 H       
 301 H301          24.2751    13.5116    11.4884 H       
 302 H302          22.0683    13.1277    12.3724 H       
 303 H303          22.3812    14.7892    12.9732 H       
 304 H304          23.0784    12.7998    17.1124 H       
 305 H305          21.7083    11.1368    15.8049 H       
 306 H306          22.5475     9.8285    16.6724 H       
 307 H307          24.9437    10.7300    17.9865 H       
 308 H308          21.7482    10.7477    18.8321 H       
 309 H309          20.9090    12.0560    17.9647 H       
 310 H310          19.5310    10.3781    16.7672 H       
 311 H311          20.3702     9.0698    17.6346 H       
 312 H312          19.3155    10.8677    19.5403 H       
 313 H313          16.2931     9.1466    19.8685 H       
 314 H314          18.2612     8.5598    17.0794 H       
 315 H315          16.8240     8.1452    17.8446 H       
 316 H316          24.5595    10.1597    20.6056 H       
 317 H317          26.6600    11.2555    21.2127 H       
 318 H318          26.4654    11.3195    19.4446 H       
 319 H319          23.5159    12.6445    21.7037 H       
 320 H320          22.9762    12.6483    23.9224 H       
 321 H321          22.9740    11.0165    24.6334 H       
 322 H322          24.3548    12.1054    24.9087 H       
 323 H323          25.6687    13.5701    21.3430 H       
 324 H324          28.1242    13.2649    19.5557 H       
 325 H325          27.6939    14.7182    20.4889 H       
 326 H326          28.1223    13.2118    21.3348 H       
 327 H327          25.7253    14.8487    19.1204 H       
 328 H328          25.8080    13.2620    18.3180 H       
 329 H329          24.3924    13.6845    19.3109 H       
@<TRIPOS>BOND
   1    1    2 1
   2    1   59 1
   3    1   65 1
   4    1   66 1
   5    2    3 1
   6    2   67 1
   7    2   68 1
   8    3    4 1
   9    3   69 1
  10    3   70 1
  11    4    5 1
  12    4   71 1
  13    4   72 1
  14    5    6 1
  15    5   73 1
  16    5   74 1
  17    6    7 1
  18    6   75 1
  19    6   76 1
  20    7    8 1
  21    7   77 1
  22    7   78 1
  23    8    9 1
  24    8   79 1
  25    8   80 1
  26    9   10 1
  27    9   81 1
  28    9   82 1
  29   10   11 1
  30   10   83 1
  31   10   84 1
  32   11   12 1
  33   11   85 1
  34   11   86 1
  35   12   13 1
  36   12   87 1
  37   12   88 1
  38   13   14 1
  39   13   89 1
  40   13   90 1
  41   14   15 1
  42   14   91 1
  43   14   92 1
  44   15   16 am
  45   15   17 2
  46   16   18 1
  47   16   60 1
  48   18   19 1
  49   18   93 1
  50   18   94 1
  51   19   20 am
  52   19   21 2
  53   20   22 1
  54   20   95 1
  55   22   23 1
  56   22   96 1
  57   22   97 1
  58   23   24 am
  59   23   25 2
  60   24   26 1
  61   24   98 1
  62   26   27 1
  63   26   30 1
  64   26   99 1
  65   27   28 2
  66   27   29 am
  67   29   33 1
  68   29  100 1
  69   30   31 1
  70   30  101 1
  71   30  102 1
  72   31   32 ar
  73   31   54 ar
  74   32   51 ar
  75   32  103 1
  76   33   34 1
  77   33   35 1
  78   33  104 1
  79   34   38 1
  80   34  105 1
  81   34  106 1
  82   35   36 2
  83   35   37 am
  84   37   41 1
  85   37  107 1
  86   38   39 1
  87   38  108 1
  88   38  109 1
  89   39   40 am
  90   39   56 2
  91   40  110 1
  92   40  111 1
  93   41   42 1
  94   41   43 1
  95   41  112 1
  96   42   61 1
  97   42  113 1
  98   42  114 1
  99   43   44 2
 100   43   45 am
 101   45   46 1
 102   45  115 1
 103   46   47 1
 104   46   48 1
 105   46  116 1
 106   47   49 1
 107   47  117 1
 108   47  118 1
 109   48  119 1
 110   48  120 1
 111   48  121 1
 112   49   50 1
 113   49  122 1
 114   49  123 1
 115   50   57 1
 116   50  124 1
 117   50  125 1
 118   51   52 ar
 119   51  126 1
 120   52   53 ar
 121   52   55 1
 122   53   54 ar
 123   53  127 1
 124   54  128 1
 125   55  129 1
 126   57   58 1
 127   57  130 1
 128   57  131 1
 129   58  132 1
 130   58  133 1
 131   59  134 1
 132   59  135 1
 133   59  136 1
 134   61   62 1
 135   61  137 1
 136   61  138 1
 137   62   63 1
 138   62  139 1
 139   62  140 1
 140   63   64 1
 141   63  141 1
 142   63  142 1
 143   64  143 1
 144   64  144 1
 145  145  146 1
 146  145  234 1
 147  145  235 1
 148  145  236 1
 149  146  147 1
 150  146  148 1
 151  146  237 1
 152  147  149 am
 153  147  150 2
 154  148  205 am
 155  148  238 1
 156  149  151 1
 157  149  239 1
 158  151  152 1
 159  151  178 1
 160  151  240 1
 161  152  153 am
 162  152  154 2
 163  153  155 1
 164  153  241 1
 165  155  156 1
 166  155  181 1
 167  155  242 1
 168  156  157 2
 169  156  158 am
 170  158  159 1
 171  158  243 1
 172  159  160 1
 173  159  161 1
 174  159  244 1
 175  160  185 1
 176  160  245 1
 177  160  246 1
 178  161  162 2
 179  161  163 am
 180  163  164 1
 181  163  247 1
 182  164  165 1
 183  164  166 1
 184  164  248 1
 185  165  189 1
 186  165  249 1
 187  165  250 1
 188  166  167 2
 189  166  168 am
 190  168  169 1
 191  168  251 1
 192  169  170 1
 193  169  171 1
 194  169  252 1
 195  170  174 1
 196  170  253 1
 197  170  254 1
 198  171  172 2
 199  171  173 am
 200  173  197 1
 201  173  255 1
 202  174  175 1
 203  174  256 1
 204  174  257 1
 205  175  176 1
 206  175  258 1
 207  175  259 1
 208  176  177 1
 209  176  260 1
 210  177  195 1
 211  177  196 2
 212  178  179 1
 213  178  180 1
 214  178  261 1
 215  179  262 1
 216  179  263 1
 217  179  264 1
 218  180  265 1
 219  181  182 1
 220  181  266 1
 221  181  267 1
 222  182  183 1
 223  182  184 2
 224  183  268 1
 225  185  186 1
 226  185  269 1
 227  185  270 1
 228  186  187 1
 229  186  271 1
 230  186  272 1
 231  187  188 1
 232  187  273 1
 233  187  274 1
 234  188  275 1
 235  188  276 1
 236  189  190 ar
 237  189  191 ar
 238  190  194 ar
 239  190  277 1
 240  191  192 ar
 241  191  278 1
 242  192  193 ar
 243  192  279 1
 244  193  194 ar
 245  193  280 1
 246  194  281 1
 247  195  282 1
 248  195  283 1
 249  196  284 1
 250  197  198 1
 251  197  199 1
 252  197  285 1
 253  198  201 am
 254  198  202 2
 255  199  200 1
 256  199  286 1
 257  199  287 1
 258  200  203 1
 259  200  204 1
 260  200  288 1
 261  201  289 1
 262  201  290 1
 263  203  291 1
 264  203  292 1
 265  203  293 1
 266  204  294 1
 267  204  295 1
 268  204  296 1
 269  205  206 2
 270  205  207 1
 271  207  208 1
 272  207  211 1
 273  207  297 1
 274  208  209 1
 275  208  212 am
 276  209  210 1
 277  209  298 1
 278  209  299 1
 279  210  211 1
 280  210  300 1
 281  210  301 1
 282  211  302 1
 283  211  303 1
 284  212  213 2
 285  212  214 1
 286  214  215 1
 287  214  216 1
 288  214  304 1
 289  215  218 1
 290  215  305 1
 291  215  306 1
 292  216  217 am
 293  216  307 1
 294  217  224 2
 295  217  225 1
 296  218  219 1
 297  218  308 1
 298  218  309 1
 299  219  220 1
 300  219  310 1
 301  219  311 1
 302  220  221 1
 303  220  312 1
 304  221  222 2
 305  221  223 1
 306  222  313 1
 307  223  314 1
 308  223  315 1
 309  225  226 1
 310  225  227 1
 311  225  316 1
 312  226  231 1
 313  226  317 1
 314  226  318 1
 315  227  228 am
 316  227  319 1
 317  228  229 2
 318  228  230 1
 319  230  320 1
 320  230  321 1
 321  230  322 1
 322  231  232 1
 323  231  233 1
 324  231  323 1
 325  232  324 1
 326  232  325 1
 327  232  326 1
 328  233  327 1
 329  233  328 1
 330  233  329 1

#	End of record

