#	Name: ASD03092711
#	Creating user name:	WinNT
#	Creation time:	15. 06. 2019 20:33

#	Modifying user name:	WinNT
#	Modification time:	15. 06. 2019 20:33

#	Program:	/corina/corina34_cracker 3.40 0067  02.08.2006

@<TRIPOS>MOLECULE
ASD03092711
  56   58    0    0    0
SMALL
NO_CHARGES


@<TRIPOS>ATOM
   1 C1             2.6773    -4.1169     6.3748 C.3     
   2 O2             3.6238    -3.3766     7.1482 O.3     
   3 C3             3.8434    -2.0859     6.7840 C.ar    
   4 C4             3.1580    -1.5427     5.7092 C.ar    
   5 C5             3.3845    -0.2235     5.3400 C.ar    
   6 N6             2.6952     0.3280     4.2573 N.pl3   
   7 C7             2.4265     1.7005     4.2250 C.2     
   8 C8             1.8413     2.4008     3.1560 C.2     
   9 C9             1.7500     3.7018     3.5116 C.2     
  10 C10            1.1836     4.8155     2.6691 C.3     
  11 C11           -0.3430     4.8064     2.7711 C.3     
  12 C12           -0.9134     5.8665     1.8646 C.2     
  13 O13           -0.1719     6.5610     1.2022 O.2     
  14 N14           -2.2475     6.0429     1.7901 N.am    
  15 C15           -2.8020     7.0735     0.9088 C.3     
  16 C16           -3.1431     5.2040     2.5902 C.3     
  17 N17            2.2601     3.8253     4.7648 N.pl3   
  18 N18            2.6721     2.5557     5.1898 N.2     
  19 C19            2.3533     5.0097     5.5018 C.ar    
  20 C20            1.2966     5.9175     5.5324 C.ar    
  21 C21            1.4280     7.0750     6.2723 C.ar    
  22 N22            2.5354     7.3261     6.9442 N.ar    
  23 C23            3.5577     6.4916     6.9401 C.ar    
  24 C24            4.7977     6.8303     7.7268 C.3     
  25 C25            3.5034     5.3102     6.2296 C.ar    
  26 C26            4.2972     0.5475     6.0493 C.ar    
  27 C27            4.9783     0.0019     7.1203 C.ar    
  28 C28            4.7502    -1.3092     7.4922 C.ar    
  29 C29            5.9678     0.8401     7.8881 C.3     
  30 F30            5.3115     1.4919     8.9376 F       
  31 F31            6.9732     0.0169     8.4064 F       
  32 F32            6.5372     1.7897     7.0329 F       
  33 H33            3.0085    -4.1577     5.3372 H       
  34 H34            2.5970    -5.1293     6.7707 H       
  35 H35            1.7043    -3.6283     6.4267 H       
  36 H36            2.4494    -2.1445     5.1594 H       
  37 H37            2.4030    -0.2407     3.5278 H       
  38 H38            1.5214     1.9748     2.2166 H       
  39 H39            1.5659     5.7717     3.0262 H       
  40 H40            1.4791     4.6713     1.6298 H       
  41 H41           -0.7214     3.8293     2.4706 H       
  42 H42           -0.6396     5.0101     3.8000 H       
  43 H43           -2.9868     6.6474    -0.0773 H       
  44 H44           -3.7387     7.4430     1.3263 H       
  45 H45           -2.0932     7.8970     0.8218 H       
  46 H46           -3.3180     5.6776     3.5563 H       
  47 H47           -4.0920     5.0838     2.0674 H       
  48 H48           -2.6858     4.2264     2.7424 H       
  49 H49            0.3876     5.7182     4.9844 H       
  50 H50            0.6142     7.7844     6.3015 H       
  51 H51            4.7074     6.4312     8.7370 H       
  52 H52            5.6683     6.3916     7.2393 H       
  53 H53            4.9142     7.9131     7.7730 H       
  54 H54            4.3419     4.6295     6.2342 H       
  55 H55            4.4746     1.5737     5.7630 H       
  56 H56            5.2813    -1.7315     8.3324 H       
@<TRIPOS>BOND
   1    1    2 1
   2    1   33 1
   3    1   34 1
   4    1   35 1
   5    2    3 1
   6    3   28 ar
   7    3    4 ar
   8    4    5 ar
   9    4   36 1
  10    5    6 1
  11    5   26 ar
  12    6    7 1
  13    6   37 1
  14    7   18 2
  15    7    8 1
  16    8    9 2
  17    8   38 1
  18    9   10 1
  19    9   17 1
  20   10   11 1
  21   10   39 1
  22   10   40 1
  23   11   12 1
  24   11   41 1
  25   11   42 1
  26   12   13 2
  27   12   14 am
  28   14   15 1
  29   14   16 1
  30   15   43 1
  31   15   44 1
  32   15   45 1
  33   16   46 1
  34   16   47 1
  35   16   48 1
  36   17   18 1
  37   17   19 1
  38   19   25 ar
  39   19   20 ar
  40   20   21 ar
  41   20   49 1
  42   21   22 ar
  43   21   50 1
  44   22   23 ar
  45   23   24 1
  46   23   25 ar
  47   24   51 1
  48   24   52 1
  49   24   53 1
  50   25   54 1
  51   26   27 ar
  52   26   55 1
  53   27   28 ar
  54   27   29 1
  55   28   56 1
  56   29   30 1
  57   29   31 1
  58   29   32 1

#	End of record

