#	Name: ASD01880432
#	Creating user name:	WinNT
#	Creation time:	15. 06. 2019 19:40

#	Modifying user name:	WinNT
#	Modification time:	15. 06. 2019 19:40

#	Program:	/corina/corina34_cracker 3.40 0067  02.08.2006

@<TRIPOS>MOLECULE
ASD01880432
  48   52    0    0    0
SMALL
NO_CHARGES


@<TRIPOS>ATOM
   1 C1            -0.0169     1.3927     0.0097 C.ar    
   2 C2             0.0021    -0.0041     0.0020 C.ar    
   3 C3             1.2135    -0.6907    -0.0132 C.ar    
   4 C4             2.4022     0.0193    -0.0208 C.ar    
   5 C5             2.3727     1.4246    -0.0130 C.ar    
   6 C6             1.1522     2.0999     0.0023 C.ar    
   7 N7             3.6286    -0.6376    -0.0355 N.pl3   
   8 C8             4.7929     0.0687    -0.0425 C.2     
   9 N9             4.8015     1.4562    -0.0353 N.am    
  10 C10            3.6502     2.1585    -0.0210 C.2     
  11 N11            3.9493    -2.0026    -0.0451 N.2     
  12 C12            5.2606    -2.1201    -0.0575 C.2     
  13 C13            5.8179    -0.8301    -0.0562 C.2     
  14 C14            6.0812     2.1693    -0.0435 C.3     
  15 O15            3.6662     3.3751    -0.0147 O.2     
  16 C16           -1.2742    -0.7594     0.0106 C.ar    
  17 C17            6.0195    -3.3954    -0.0699 C.ar    
  18 C18            5.3413    -4.6114    -0.0695 C.ar    
  19 C19            6.0554    -5.7985    -0.0816 C.ar    
  20 C20            7.4430    -5.7738    -0.0936 C.ar    
  21 C21            8.1168    -4.5666    -0.0940 C.ar    
  22 C22            7.4131    -3.3792    -0.0878 C.ar    
  23 C23           -2.4901    -0.0782     0.0264 C.ar    
  24 C24           -3.6747    -0.7862     0.0344 C.ar    
  25 C25           -3.6567    -2.1694     0.0273 C.ar    
  26 C26           -2.4530    -2.8508     0.0117 C.ar    
  27 C27           -1.2623    -2.1531    -0.0027 C.ar    
  28 O28            5.3970    -6.9875    -0.0813 O.3     
  29 C29            6.1965    -8.1718    -0.0941 C.3     
  30 H30           -0.9612     1.9167     0.0170 H       
  31 H31            1.2257    -1.7706    -0.0188 H       
  32 H32            1.1314     3.1797     0.0087 H       
  33 H33            6.8715    -0.5928    -0.0646 H       
  34 H34            6.3890     2.3516    -1.0731 H       
  35 H35            5.9701     3.1209     0.4764 H       
  36 H36            6.8365     1.5661     0.4602 H       
  37 H37            4.2615    -4.6291    -0.0595 H       
  38 H38            7.9980    -6.7002    -0.1023 H       
  39 H39            9.1967    -4.5526    -0.1034 H       
  40 H40            7.9423    -2.4377    -0.0882 H       
  41 H41           -2.5053     1.0017     0.0326 H       
  42 H42           -4.6174    -0.2595     0.0466 H       
  43 H43           -4.5862    -2.7195     0.0343 H       
  44 H44           -2.4450    -3.9307     0.0066 H       
  45 H45           -0.3231    -2.6861    -0.0153 H       
  46 H46            6.8176    -8.1812    -0.9898 H       
  47 H47            6.8337    -8.1896     0.7901 H       
  48 H48            5.5481    -9.0479    -0.0924 H       
@<TRIPOS>BOND
   1    1    2 ar
   2    1    6 ar
   3    1   30 1
   4    2    3 ar
   5    2   16 1
   6    3    4 ar
   7    3   31 1
   8    4    5 ar
   9    4    7 1
  10    5    6 ar
  11    5   10 1
  12    6   32 1
  13    7    8 1
  14    7   11 1
  15    8    9 1
  16    8   13 2
  17    9   10 am
  18    9   14 1
  19   10   15 2
  20   11   12 2
  21   12   13 1
  22   12   17 1
  23   13   33 1
  24   14   34 1
  25   14   35 1
  26   14   36 1
  27   16   23 ar
  28   16   27 ar
  29   17   18 ar
  30   17   22 ar
  31   18   19 ar
  32   18   37 1
  33   19   20 ar
  34   19   28 1
  35   20   21 ar
  36   20   38 1
  37   21   22 ar
  38   21   39 1
  39   22   40 1
  40   23   24 ar
  41   23   41 1
  42   24   25 ar
  43   24   42 1
  44   25   26 ar
  45   25   43 1
  46   26   27 ar
  47   26   44 1
  48   27   45 1
  49   28   29 1
  50   29   46 1
  51   29   47 1
  52   29   48 1

#	End of record

