#	Name: ASD04550081
#	Creating user name:	WinNT
#	Creation time:	15. 06. 2019 20:49

#	Modifying user name:	WinNT
#	Modification time:	15. 06. 2019 20:49

#	Program:	/corina/corina34_cracker 3.40 0067  02.08.2006

@<TRIPOS>MOLECULE
ASD04550081
  37   37    0    0    0
SMALL
NO_CHARGES


@<TRIPOS>ATOM
   1 C1            -0.0167     1.3781     0.0096 C.ar    
   2 C2             0.0021    -0.0041     0.0020 C.ar    
   3 C3             1.2084    -0.6789    -0.0132 C.ar    
   4 C4             2.3960     0.0285    -0.0212 C.ar    
   5 C5             2.3773     1.4107    -0.0145 C.ar    
   6 C6             1.1710     2.0855     0.0021 C.ar    
   7 C7            -1.2926    -0.7753     0.0108 C.3     
   8 C8            -1.7452    -1.0285    -1.4286 C.3     
   9 C9            -3.0596    -1.8115    -1.4197 C.3     
  10 C10            3.6720     2.1819    -0.0223 C.3     
  11 C11            3.7292     3.0551    -1.2492 C.2     
  12 C12            3.7521     3.0567     1.2304 C.3     
  13 N13            4.8027     3.8400    -1.4683 N.am    
  14 S14            4.8656     4.7995    -2.8165 S.o2    
  15 O15            2.8092     3.0516    -2.0395 O.2     
  16 O16            6.1264     5.4488    -2.7261 O.2     
  17 O17            4.5720     3.9156    -3.8897 O.2     
  18 C18            3.5178     5.9917    -2.5868 C.3     
  19 H19           -0.9592     1.9054     0.0170 H       
  20 H20            1.2231    -1.7588    -0.0184 H       
  21 H21            3.3386    -0.4987    -0.0324 H       
  22 H22            1.1563     3.1654     0.0077 H       
  23 H23           -1.1443    -1.7285     0.5181 H       
  24 H24           -2.0550    -0.1993     0.5353 H       
  25 H25           -1.8935    -0.0752    -1.9359 H       
  26 H26           -0.9828    -1.6044    -1.9532 H       
  27 H27           -3.3820    -1.9919    -2.4452 H       
  28 H28           -2.9113    -2.7648    -0.9125 H       
  29 H29           -3.8220    -1.2355    -0.8952 H       
  30 H30            4.5100     1.4850    -0.0330 H       
  31 H31            4.6886     3.6145     1.2248 H       
  32 H32            2.9141     3.7536     1.2411 H       
  33 H33            3.7107     2.4251     2.1178 H       
  34 H34            5.5385     3.8428    -0.8362 H       
  35 H35            3.6885     6.5616    -1.6735 H       
  36 H36            3.4849     6.6714    -3.4383 H       
  37 H37            2.5702     5.4585    -2.5107 H       
@<TRIPOS>BOND
   1    1    2 ar
   2    1    6 ar
   3    1   19 1
   4    2    3 ar
   5    2    7 1
   6    3    4 ar
   7    3   20 1
   8    4    5 ar
   9    4   21 1
  10    5    6 ar
  11    5   10 1
  12    6   22 1
  13    7    8 1
  14    7   23 1
  15    7   24 1
  16    8    9 1
  17    8   25 1
  18    8   26 1
  19    9   27 1
  20    9   28 1
  21    9   29 1
  22   10   11 1
  23   10   12 1
  24   10   30 1
  25   11   13 am
  26   11   15 2
  27   12   31 1
  28   12   32 1
  29   12   33 1
  30   13   14 am
  31   13   34 1
  32   14   16 2
  33   14   17 2
  34   14   18 1
  35   18   35 1
  36   18   36 1
  37   18   37 1

#	End of record

