#	Name: ASD03570040
#	Creating user name:	WinNT
#	Creation time:	15. 06. 2019 20:43

#	Modifying user name:	WinNT
#	Modification time:	15. 06. 2019 20:43

#	Program:	/corina/corina34_cracker 3.40 0067  02.08.2006

@<TRIPOS>MOLECULE
ASD03570040
  59   61    0    0    0
SMALL
NO_CHARGES


@<TRIPOS>ATOM
   1 C1             1.6315    -0.3752     2.1908 C.ar    
   2 C2             0.3610     0.0103     1.8044 C.ar    
   3 C3             0.1895     1.0998     0.9704 C.ar    
   4 C4             1.2875     1.8063     0.5202 C.ar    
   5 C5             2.5648     1.4218     0.9064 C.ar    
   6 C6             2.7336     0.3274     1.7444 C.ar    
   7 C7            -0.8393    -0.7590     2.2930 C.3     
   8 C8            -0.8868    -0.7131     3.8216 C.3     
   9 C9            -2.1134    -0.1314     1.7241 C.3     
  10 C10           -0.7362    -2.2134     1.8294 C.3     
  11 N11            3.6793     2.1355     0.4520 N.am    
  12 C12            3.6129     3.4749     0.3176 C.2     
  13 N13            4.7130     4.1730    -0.0274 N.am    
  14 O14            2.5605     4.0536     0.5077 O.2     
  15 C15            4.6191     5.5477    -0.2826 C.ar    
  16 C16            3.3433     7.5000    -0.7843 C.ar    
  17 C17            3.3863     6.1351    -0.5370 C.ar    
  18 C18            5.7619     6.3484    -0.2794 C.ar    
  19 N19            5.6742     7.6448    -0.5201 N.ar    
  20 C20            4.5163     8.2276    -0.7701 C.ar    
  21 O21            6.9735     5.7912    -0.0267 O.3     
  22 C22            8.0484     6.6172     0.0677 C.ar    
  23 C23            8.8669     6.8216    -1.0342 C.ar    
  24 C24            9.9588     7.6616    -0.9356 C.ar    
  25 C25           10.2368     8.2987     0.2600 C.ar    
  26 C26            9.4231     8.0968     1.3592 C.ar    
  27 C27            8.3263     7.2620     1.2643 C.ar    
  28 C28            7.4361     7.0472     2.4612 C.3     
  29 C29            8.2580     6.4565     3.6086 C.3     
  30 C30            6.8379     8.3857     2.8986 C.3     
  31 H31            1.7619    -1.2239     2.8459 H       
  32 H32           -0.8042     1.3984     0.6704 H       
  33 H33            1.1529     2.6568    -0.1318 H       
  34 H34            3.7257     0.0261     2.0468 H       
  35 H35           -0.9602     0.3230     4.1519 H       
  36 H36           -1.7550    -1.2695     4.1749 H       
  37 H37            0.0209    -1.1602     4.2269 H       
  38 H38           -2.0795    -0.1641     0.6351 H       
  39 H39           -2.9815    -0.6878     2.0774 H       
  40 H40           -2.1868     0.9048     2.0544 H       
  41 H41            0.1715    -2.6605     2.2347 H       
  42 H42           -1.6043    -2.7698     2.1827 H       
  43 H43           -0.7023    -2.2461     0.7404 H       
  44 H44            4.4997     1.6663     0.2337 H       
  45 H45            5.5698     3.7238    -0.0990 H       
  46 H46            2.4013     7.9882    -0.9860 H       
  47 H47            2.4827     5.5436    -0.5425 H       
  48 H48            4.4859     9.2899    -0.9622 H       
  49 H49            8.6504     6.3240    -1.9680 H       
  50 H50           10.5962     7.8208    -1.7927 H       
  51 H51           11.0913     8.9549     0.3351 H       
  52 H52            9.6426     8.5953     2.2918 H       
  53 H53            6.6329     6.3590     2.1978 H       
  54 H54            9.0612     7.1447     3.8720 H       
  55 H55            7.6142     6.3012     4.4743 H       
  56 H56            8.6842     5.5029     3.2969 H       
  57 H57            6.2524     8.8065     2.0812 H       
  58 H58            6.1941     8.2304     3.7643 H       
  59 H59            7.6412     9.0739     3.1620 H       
@<TRIPOS>BOND
   1    1    2 ar
   2    1    6 ar
   3    1   31 1
   4    2    3 ar
   5    2    7 1
   6    3    4 ar
   7    3   32 1
   8    4    5 ar
   9    4   33 1
  10    5    6 ar
  11    5   11 1
  12    6   34 1
  13    7    8 1
  14    7    9 1
  15    7   10 1
  16    8   35 1
  17    8   36 1
  18    8   37 1
  19    9   38 1
  20    9   39 1
  21    9   40 1
  22   10   41 1
  23   10   42 1
  24   10   43 1
  25   11   12 am
  26   11   44 1
  27   12   13 am
  28   12   14 2
  29   13   15 1
  30   13   45 1
  31   15   18 ar
  32   15   17 ar
  33   16   17 ar
  34   16   20 ar
  35   16   46 1
  36   17   47 1
  37   18   19 ar
  38   18   21 1
  39   19   20 ar
  40   20   48 1
  41   21   22 1
  42   22   23 ar
  43   22   27 ar
  44   23   24 ar
  45   23   49 1
  46   24   25 ar
  47   24   50 1
  48   25   26 ar
  49   25   51 1
  50   26   27 ar
  51   26   52 1
  52   27   28 1
  53   28   29 1
  54   28   30 1
  55   28   53 1
  56   29   54 1
  57   29   55 1
  58   29   56 1
  59   30   57 1
  60   30   58 1
  61   30   59 1

#	End of record

