#	Name: ASD00060029
#	Creating user name:	WinNT
#	Creation time:	15. 06. 2019 18:29

#	Modifying user name:	WinNT
#	Modification time:	15. 06. 2019 18:29

#	Program:	/corina/corina34_cracker 3.40 0067  02.08.2006

@<TRIPOS>MOLECULE
ASD00060029
  45   47    0    0    0
SMALL
NO_CHARGES


@<TRIPOS>ATOM
   1 C1            -0.0167     1.3793     0.0096 C.ar    
   2 C2             0.0021    -0.0041     0.0020 C.ar    
   3 C3             1.2098    -0.6789    -0.0131 C.ar    
   4 C4             2.3967     0.0292    -0.0207 C.ar    
   5 C5             2.3773     1.4115    -0.0131 C.ar    
   6 C6             1.1709     2.0863     0.0021 C.ar    
   7 C7             3.6719     2.1830    -0.0208 C.3     
   8 C8             4.0967     2.4518    -1.4658 C.3     
   9 C9             5.3913     3.2233    -1.4735 C.2     
  10 C10            5.3745     4.6885    -1.3545 C.ar    
  11 C11            6.5667     2.5687    -1.5897 C.2     
  12 C12            5.8188     5.4833    -2.4179 C.ar    
  13 C13            5.8023     6.8495    -2.3046 C.ar    
  14 C14            5.3434     7.4480    -1.1302 C.ar    
  15 C15            4.9004     6.6576    -0.0686 C.ar    
  16 C16            4.9088     5.2911    -0.1799 C.ar    
  17 Cl17          -1.4892    -0.8928     0.0121 Cl      
  18 C18            5.3270     8.9254    -1.0100 C.ar    
  19 C19            4.8693     9.5272     0.1615 C.ar    
  20 C20            4.8568    10.9030     0.2677 C.ar    
  21 C21            5.2972    11.6848    -0.7852 C.ar    
  22 C22            5.7520    11.0933    -1.9501 C.ar    
  23 C23            5.7745     9.7184    -2.0658 C.ar    
  24 C24            7.8222     3.3170    -1.5972 C.2     
  25 O25            7.8083     4.5292    -1.4988 O.2     
  26 O26            8.9966     2.6630    -1.7133 O.3     
  27 H27           -0.9592     1.9066     0.0170 H       
  28 H28            1.2250    -1.7588    -0.0187 H       
  29 H29            3.3395    -0.4974    -0.0321 H       
  30 H30            1.1564     3.1662     0.0080 H       
  31 H31            3.5331     3.1307     0.4994 H       
  32 H32            4.4442     1.6017     0.4829 H       
  33 H33            4.2355     1.5041    -1.9860 H       
  34 H34            3.3244     3.0331    -1.9695 H       
  35 H35            6.5790     1.4923    -1.6772 H       
  36 H36            6.1747     5.0207    -3.3265 H       
  37 H37            6.1450     7.4631    -3.1246 H       
  38 H38            4.5464     7.1229     0.8395 H       
  39 H39            4.5656     4.6799     0.6417 H       
  40 H40            4.5250     8.9178     0.9840 H       
  41 H41            4.5022    11.3703     1.1745 H       
  42 H42            5.2856    12.7612    -0.6974 H       
  43 H43            6.0942    11.7088    -2.7690 H       
  44 H44            6.1301     9.2578    -2.9756 H       
  45 H45            9.7712     3.2418    -1.7085 H       
@<TRIPOS>BOND
   1    1    2 ar
   2    1    6 ar
   3    1   27 1
   4    2    3 ar
   5    2   17 1
   6    3    4 ar
   7    3   28 1
   8    4    5 ar
   9    4   29 1
  10    5    6 ar
  11    5    7 1
  12    6   30 1
  13    7    8 1
  14    7   31 1
  15    7   32 1
  16    8    9 1
  17    8   33 1
  18    8   34 1
  19    9   10 1
  20    9   11 2
  21   10   12 ar
  22   10   16 ar
  23   11   24 1
  24   11   35 1
  25   12   13 ar
  26   12   36 1
  27   13   14 ar
  28   13   37 1
  29   14   15 ar
  30   14   18 1
  31   15   16 ar
  32   15   38 1
  33   16   39 1
  34   18   19 ar
  35   18   23 ar
  36   19   20 ar
  37   19   40 1
  38   20   21 ar
  39   20   41 1
  40   21   22 ar
  41   21   42 1
  42   22   23 ar
  43   22   43 1
  44   23   44 1
  45   24   25 2
  46   24   26 1
  47   26   45 1

#	End of record

