#	Name: ASD09116130
#	Creating user name:	WinNT
#	Creation time:	15. 06. 2019 21:20

#	Modifying user name:	WinNT
#	Modification time:	15. 06. 2019 21:20

#	Program:	/corina/corina34_cracker 3.40 0067  02.08.2006

@<TRIPOS>MOLECULE
ASD09116130
  63   68    0    0    0
SMALL
NO_CHARGES


@<TRIPOS>ATOM
   1 N1            -0.0613     1.6026    -0.5383 N.2     
   2 C2            -0.0898     0.2763    -1.1800 C.3     
   3 C3             1.1888     1.9781    -0.5232 C.2     
   4 N4             2.0151     1.0676    -1.0773 N.2     
   5 C5             1.3683     0.0141    -1.5032 C.2     
   6 N6             1.6191     3.1791     0.0037 N.pl3   
   7 C7             2.9897     3.4575     0.0848 C.ar    
   8 C8             3.4394     4.7664    -0.0217 C.ar    
   9 C9             3.8978     2.4243     0.2775 C.ar    
  10 C10            5.2498     2.6992     0.3575 C.ar    
  11 C11            5.6999     4.0105     0.2450 C.ar    
  12 C12            4.7909     5.0420     0.0577 C.ar    
  13 N13            1.8927    -1.0850    -2.1090 N.pl3   
  14 C14           -0.6184    -0.7643    -0.2267 C.ar    
  15 N15           -0.1972    -0.7592     1.0222 N.ar    
  16 N16           -1.4939    -1.6505    -0.6672 N.ar    
  17 C17           -1.9715    -2.5696     0.1427 C.ar    
  18 C18           -1.5450    -2.5991     1.4665 C.ar    
  19 C19           -0.6368    -1.6580     1.8942 C.ar    
  20 C20           -2.9704    -3.7118    -0.0387 C.3     
  21 C21           -4.2246    -3.2615     0.7757 C.3     
  22 C22           -3.7488    -3.2946     2.2480 C.3     
  23 C23           -2.2604    -3.7592     2.1545 C.3     
  24 C24           -2.3591    -4.7700     0.9524 C.3     
  25 N25            7.0703     4.2903     0.3264 N.3     
  26 F26            6.1337     1.6949     0.5454 F       
  27 C27            7.5281     4.8976    -0.8464 C.3     
  28 C28            9.0683     5.0086    -0.8703 C.3     
  29 C29            9.4923     6.1531     0.0145 C.3     
  30 C30            9.8119     5.7027     1.4539 C.3     
  31 C31            8.7964     4.6704     1.9727 C.3     
  32 C32            7.3875     5.0245     1.5673 C.3     
  33 C33           10.7376     6.8078    -0.5867 C.3     
  34 H34           -0.6893     0.3023    -2.0899 H       
  35 H35            0.9725     3.8304     0.3177 H       
  36 H36            2.7324     5.5698    -0.1671 H       
  37 H37            3.5474     1.4065     0.3651 H       
  38 H38            5.1403     6.0602    -0.0297 H       
  39 H39            2.8482    -1.1428    -2.2661 H       
  40 H40            1.3112    -1.8111    -2.3840 H       
  41 H41           -0.2859    -1.6537     2.9156 H       
  42 H42           -3.1522    -4.0346    -1.0638 H       
  43 H43           -4.5213    -2.2515     0.4929 H       
  44 H44           -5.0486    -3.9590     0.6249 H       
  45 H45           -3.8117    -2.3012     2.6922 H       
  46 H46           -4.3367    -4.0095     2.8236 H       
  47 H47           -1.8105    -4.1235     3.0780 H       
  48 H48           -3.0455    -5.5917     1.1568 H       
  49 H49           -1.3810    -5.1255     0.6281 H       
  50 H50            7.2011     4.3079    -1.7028 H       
  51 H51            7.0988     5.8967    -0.9200 H       
  52 H52            9.5065     4.0811    -0.5018 H       
  53 H53            9.4048     5.1923    -1.8906 H       
  54 H54            8.6898     6.8901     0.0460 H       
  55 H55           10.8082     5.2611     1.4742 H       
  56 H56            9.7984     6.5736     2.1092 H       
  57 H57            9.0473     3.6900     1.5679 H       
  58 H58            8.8541     4.6302     3.0605 H       
  59 H59            7.3142     6.0974     1.3894 H       
  60 H60            6.6933     4.7330     2.3554 H       
  61 H61           10.5067     7.1793    -1.5851 H       
  62 H62           11.0532     7.6376     0.0457 H       
  63 H63           11.5402     6.0729    -0.6492 H       
@<TRIPOS>BOND
   1    1    2 1
   2    1    3 2
   3    2   14 1
   4    2    5 1
   5    2   34 1
   6    3    4 1
   7    3    6 1
   8    4    5 2
   9    5   13 1
  10    6    7 1
  11    6   35 1
  12    7    8 ar
  13    7    9 ar
  14    8   12 ar
  15    8   36 1
  16    9   10 ar
  17    9   37 1
  18   10   11 ar
  19   10   26 1
  20   11   12 ar
  21   11   25 1
  22   12   38 1
  23   13   39 1
  24   13   40 1
  25   14   15 ar
  26   14   16 ar
  27   15   19 ar
  28   16   17 ar
  29   17   18 ar
  30   17   20 1
  31   18   19 ar
  32   18   23 1
  33   19   41 1
  34   20   21 1
  35   20   24 1
  36   20   42 1
  37   21   22 1
  38   21   43 1
  39   21   44 1
  40   22   23 1
  41   22   45 1
  42   22   46 1
  43   23   24 1
  44   23   47 1
  45   24   48 1
  46   24   49 1
  47   25   27 1
  48   25   32 1
  49   27   28 1
  50   27   50 1
  51   27   51 1
  52   28   29 1
  53   28   52 1
  54   28   53 1
  55   29   30 1
  56   29   33 1
  57   29   54 1
  58   30   31 1
  59   30   55 1
  60   30   56 1
  61   31   32 1
  62   31   57 1
  63   31   58 1
  64   32   59 1
  65   32   60 1
  66   33   61 1
  67   33   62 1
  68   33   63 1

#	End of record

