#	Name: ASD08170409
#	Creating user name:	WinNT
#	Creation time:	15. 06. 2019 21:17

#	Modifying user name:	WinNT
#	Modification time:	15. 06. 2019 21:17

#	Program:	/corina/corina34_cracker 3.40 0067  02.08.2006

@<TRIPOS>MOLECULE
ASD08170409
  57   60    0    0    0
SMALL
NO_CHARGES


@<TRIPOS>ATOM
   1 N1             0.6678     1.1897    -0.7743 N.2     
   2 C2             0.7508    -0.1051    -0.7120 C.2     
   3 S3             2.4053    -0.5492    -0.6993 S.3     
   4 C4             2.8433     1.1574    -0.7842 C.2     
   5 N5             1.7462     1.8449    -0.8117 N.2     
   6 C6             8.5308     3.6494     3.9235 C.2     
   7 S7             8.2250     5.1066     4.8693 S.3     
   8 C8             8.8976     4.3334     6.2420 C.2     
   9 N9             9.2689     3.1353     5.9047 N.2     
  10 N10            9.0767     2.7769     4.7095 N.2     
  11 C11           10.3655     4.0263    10.7488 C.ar    
  12 C12           11.4371     3.2012    10.4343 C.ar    
  13 C13            9.9602     4.1606    12.0702 C.ar    
  14 C14           10.6236     3.4735    13.0678 C.ar    
  15 C15           11.6914     2.6524    12.7517 C.ar    
  16 C16           12.0969     2.5164    11.4359 C.ar    
  17 C17           -3.9351    -0.8660    -0.5509 C.ar    
  18 C18           -4.2797     0.2992    -1.2232 C.ar    
  19 C19           -5.5696     0.7859    -1.1422 C.ar    
  20 C20           -6.5182     0.1137    -0.3920 C.ar    
  21 C21           -6.1776    -1.0475     0.2788 C.ar    
  22 C22           -4.8905    -1.5415     0.1969 C.ar    
  23 Br23          12.5976     1.7137    14.1205 Br      
  24 Br24          -8.2832     0.7835    -0.2829 Br      
  25 C25            4.2429     1.7152    -0.8181 C.3     
  26 C26            4.7237     1.9738     0.6111 C.3     
  27 S27            6.4084     2.6452     0.5703 S.3     
  28 C28            6.7960     2.8818     2.3265 C.3     
  29 C29            8.2088     3.4528     2.4645 C.3     
  30 N30           -0.3251    -0.9850    -0.6631 N.am    
  31 C31           -1.5860    -0.5092    -0.6792 C.2     
  32 O32           -1.7829     0.6893    -0.7365 O.2     
  33 N33           -2.6286    -1.3619    -0.6317 N.am    
  34 N34            9.0256     4.8956     7.5076 N.am    
  35 C35            9.5746     4.1812     8.5099 C.2     
  36 O36            9.9579     3.0452     8.3077 O.2     
  37 N37            9.6986     4.7260     9.7364 N.am    
  38 H38           11.7542     3.0947     9.4074 H       
  39 H39            9.1273     4.8020    12.3176 H       
  40 H40           10.3088     3.5776    14.0957 H       
  41 H41           12.9305     1.8745    11.1919 H       
  42 H42           -3.5395     0.8244    -1.8086 H       
  43 H43           -5.8381     1.6923    -1.6645 H       
  44 H44           -6.9199    -1.5701     0.8639 H       
  45 H45           -4.6251    -2.4479     0.7208 H       
  46 H46            4.9078     0.9991    -1.3011 H       
  47 H47            4.2478     2.6504    -1.3780 H       
  48 H48            4.0588     2.6899     1.0941 H       
  49 H49            4.7187     1.0385     1.1710 H       
  50 H50            6.0793     3.5752     2.7666 H       
  51 H51            6.7393     1.9238     2.8434 H       
  52 H52            8.2655     4.4108     1.9476 H       
  53 H53            8.9255     2.7595     2.0244 H       
  54 H54           -0.1680    -1.9411    -0.6173 H       
  55 H55           -2.4737    -2.3192    -0.6535 H       
  56 H56            8.7198     5.8019     7.6689 H       
  57 H57            9.3258     5.6030     9.9175 H       
@<TRIPOS>BOND
   1    1    2 2
   2    1    5 1
   3    2    3 1
   4    2   30 1
   5    3    4 1
   6    4    5 2
   7    4   25 1
   8    6    7 1
   9    6   29 1
  10    6   10 2
  11    7    8 1
  12    8    9 2
  13    8   34 1
  14    9   10 1
  15   11   12 ar
  16   11   13 ar
  17   11   37 1
  18   12   16 ar
  19   12   38 1
  20   13   14 ar
  21   13   39 1
  22   14   15 ar
  23   14   40 1
  24   15   16 ar
  25   15   23 1
  26   16   41 1
  27   17   18 ar
  28   17   33 1
  29   17   22 ar
  30   18   19 ar
  31   18   42 1
  32   19   20 ar
  33   19   43 1
  34   20   21 ar
  35   20   24 1
  36   21   22 ar
  37   21   44 1
  38   22   45 1
  39   25   26 1
  40   25   46 1
  41   25   47 1
  42   26   27 1
  43   26   48 1
  44   26   49 1
  45   27   28 1
  46   28   29 1
  47   28   50 1
  48   28   51 1
  49   29   52 1
  50   29   53 1
  51   30   31 am
  52   30   54 1
  53   31   32 2
  54   31   33 am
  55   33   55 1
  56   34   35 am
  57   34   56 1
  58   35   36 2
  59   35   37 am
  60   37   57 1

#	End of record

