#	Name: ASD01209237
#	Creating user name:	WinNT
#	Creation time:	15. 06. 2019 19:11

#	Modifying user name:	WinNT
#	Modification time:	15. 06. 2019 19:11

#	Program:	/corina/corina34_cracker 3.40 0067  02.08.2006

@<TRIPOS>MOLECULE
ASD01209237
  68   70    0    0    0
SMALL
NO_CHARGES


@<TRIPOS>ATOM
   1 O1            -0.0473     1.4626    -0.0049 O.3     
   2 O2             2.1133     2.1023     1.3496 O.3     
   3 C3             8.5152     9.3208     2.7625 C.ar    
   4 C4             8.1969     9.1778     4.1055 C.ar    
   5 C5             7.0741     8.4562     4.4833 C.ar    
   6 C6             6.2650     7.8757     3.5204 C.ar    
   7 C7             6.5813     8.0170     2.1689 C.ar    
   8 C8             7.7092     8.7479     1.7931 C.ar    
   9 O9             6.7672     8.3188     5.8002 O.3     
  10 C10            5.7211     7.3988     1.1378 C.2     
  11 N11            4.6295     6.6976     1.5027 N.am    
  12 O12            5.9983     7.5230    -0.0392 O.2     
  13 C13            3.8213     6.1168     0.5339 C.2     
  14 P14            1.2931     2.3545    -0.0126 P.3     
  15 O15            2.1319     1.9745    -1.1712 O.2     
  16 C16            0.8487     4.1182    -0.1366 C.3     
  17 N17            2.7524     5.4243     0.7761 N.2     
  18 S18            4.0872     6.2171    -1.1520 S.3     
  19 C19            2.6468     5.2468    -1.4476 C.2     
  20 C20            2.1024     4.9441    -0.2674 C.2     
  21 O21            9.6164    10.0289     2.3978 O.3     
  22 C22            9.9517    10.0371     1.0087 C.3     
  23 C23           11.4493    10.3057     0.8472 C.3     
  24 O24           11.7506    11.6213     1.3166 O.3     
  25 C25           13.1311    11.9746     1.2097 C.3     
  26 C26            9.1572    11.1350     0.2987 C.3     
  27 C27            7.6445     8.9436     6.7394 C.3     
  28 C28            7.1483     8.6856     8.1388 C.2     
  29 N29            7.4776     7.6473     8.9295 N.pl3   
  30 N30            6.8406     7.7994    10.0411 N.2     
  31 N31            6.1383     8.8762     9.9731 N.2     
  32 N32            6.3168     9.4316     8.8243 N.2     
  33 C33            8.3879     6.5504     8.5913 C.3     
  34 C34           -0.0315     0.0338    -0.0213 C.3     
  35 C35           -1.4681    -0.4923    -0.0082 C.3     
  36 C36            2.6930     0.8404     1.6867 C.3     
  37 C37            3.3962     0.9478     3.0413 C.3     
  38 H38            8.8254     9.6294     4.8588 H       
  39 H39            5.3914     7.3133     3.8154 H       
  40 H40            7.9576     8.8597     0.7480 H       
  41 H41            4.4084     6.5985     2.4420 H       
  42 H42            0.2184     4.2733    -1.0122 H       
  43 H43            0.3065     4.4201     0.7595 H       
  44 H44            2.2684     4.9516    -2.4151 H       
  45 H45            9.7067     9.0698     0.5701 H       
  46 H46           12.0140     9.5751     1.4264 H       
  47 H47           11.7216    10.2241    -0.2050 H       
  48 H48           13.2773    12.9870     1.5863 H       
  49 H49           13.7307    11.2787     1.7964 H       
  50 H50           13.4384    11.9276     0.1650 H       
  51 H51            9.4130    11.1412    -0.7609 H       
  52 H52            8.0903    10.9436     0.4137 H       
  53 H53            9.4022    12.1023     0.7373 H       
  54 H54            8.6480     8.5329     6.6281 H       
  55 H55            7.6690    10.0176     6.5548 H       
  56 H56            9.4030     6.8168     8.8857 H       
  57 H57            8.0813     5.6478     9.1198 H       
  58 H58            8.3566     6.3705     7.5167 H       
  59 H59            0.4745    -0.3137    -0.9220 H       
  60 H60            0.4981    -0.3338     0.8577 H       
  61 H61           -1.9977    -0.1248    -0.8872 H       
  62 H62           -1.4560    -1.5822    -0.0207 H       
  63 H63           -1.9741    -0.1449     0.8925 H       
  64 H64            1.9100     0.0842     1.7428 H       
  65 H65            3.4172     0.5575     0.9228 H       
  66 H66            3.8384    -0.0148     3.2985 H       
  67 H67            4.1793     1.7039     2.9852 H       
  68 H68            2.6720     1.2306     3.8052 H       
@<TRIPOS>BOND
   1    1   34 1
   2    1   14 1
   3    2   36 1
   4    2   14 1
   5    3    4 ar
   6    3   21 1
   7    3    8 ar
   8    4    5 ar
   9    4   38 1
  10    5    6 ar
  11    5    9 1
  12    6    7 ar
  13    6   39 1
  14    7    8 ar
  15    7   10 1
  16    8   40 1
  17    9   27 1
  18   10   11 am
  19   10   12 2
  20   11   13 1
  21   11   41 1
  22   13   17 2
  23   13   18 1
  24   14   15 2
  25   14   16 1
  26   16   20 1
  27   16   42 1
  28   16   43 1
  29   17   20 1
  30   18   19 1
  31   19   20 2
  32   19   44 1
  33   21   22 1
  34   22   23 1
  35   22   26 1
  36   22   45 1
  37   23   24 1
  38   23   46 1
  39   23   47 1
  40   24   25 1
  41   25   48 1
  42   25   49 1
  43   25   50 1
  44   26   51 1
  45   26   52 1
  46   26   53 1
  47   27   28 1
  48   27   54 1
  49   27   55 1
  50   28   29 1
  51   28   32 2
  52   29   30 1
  53   29   33 1
  54   30   31 2
  55   31   32 1
  56   33   56 1
  57   33   57 1
  58   33   58 1
  59   34   35 1
  60   34   59 1
  61   34   60 1
  62   35   61 1
  63   35   62 1
  64   35   63 1
  65   36   37 1
  66   36   64 1
  67   36   65 1
  68   37   66 1
  69   37   67 1
  70   37   68 1

#	End of record

