#	Name: ASD07280004
#	Creating user name:	WinNT
#	Creation time:	15. 06. 2019 21:09

#	Modifying user name:	WinNT
#	Modification time:	15. 06. 2019 21:09

#	Program:	/corina/corina34_cracker 3.40 0067  02.08.2006

@<TRIPOS>MOLECULE
ASD07280004
  34   33    0    0    0
SMALL
NO_CHARGES


@<TRIPOS>ATOM
   1 C1            -0.0184     1.5028     0.0103 C.2     
   2 N2             1.3055    -0.4734    -0.4867 N.3     
   3 C3             0.0021    -0.0041     0.0020 C.3     
   4 C4            -0.2279    -0.5251     1.4221 C.3     
   5 C5            -0.3315    -2.0513     1.3948 C.3     
   6 C6            -0.5615    -2.5723     2.8149 C.3     
   7 C7            -0.6651    -4.0985     2.7877 C.3     
   8 N8            -0.8859    -4.5987     4.1511 N.3     
   9 O9             1.0236     2.1234     0.0037 O.2     
  10 N10           -1.1946     2.1607     0.0195 N.am    
  11 C11           -1.2145     3.6256     0.0275 C.3     
  12 C12           -1.1025     4.1450    -1.4072 C.3     
  13 C13           -2.5060     4.1071     0.6367 C.2     
  14 O14           -2.7457     5.4230     0.7487 O.3     
  15 O15           -3.3257     3.3086     1.0244 O.2     
  16 H16            2.0536    -0.1430     0.1043 H       
  17 H17            1.3222    -1.4794    -0.5627 H       
  18 H18           -0.7864    -0.3745    -0.6531 H       
  19 H19            0.6068    -0.2288     2.0574 H       
  20 H20           -1.1526    -0.1051     1.8179 H       
  21 H21           -1.1662    -2.3475     0.7595 H       
  22 H22            0.5932    -2.4712     0.9991 H       
  23 H23            0.2732    -2.2761     3.4502 H       
  24 H24           -1.4862    -2.1523     3.2107 H       
  25 H25           -1.4998    -4.3947     2.1524 H       
  26 H26            0.2596    -4.5185     2.3919 H       
  27 H27           -1.7028    -4.1742     4.5642 H       
  28 H28           -0.9579    -5.6051     4.1598 H       
  29 H29           -2.0280     1.6644     0.0207 H       
  30 H30           -0.3749     3.9971     0.6150 H       
  31 H31           -0.1683     3.7967    -1.8479 H       
  32 H32           -1.9421     3.7735    -1.9947 H       
  33 H33           -1.1173     5.2349    -1.4012 H       
  34 H34           -3.5879     5.6836     1.1460 H       
@<TRIPOS>BOND
   1    1    3 1
   2    1    9 2
   3    1   10 am
   4    2    3 1
   5    2   16 1
   6    2   17 1
   7    3    4 1
   8    3   18 1
   9    4    5 1
  10    4   19 1
  11    4   20 1
  12    5    6 1
  13    5   21 1
  14    5   22 1
  15    6    7 1
  16    6   23 1
  17    6   24 1
  18    7    8 1
  19    7   25 1
  20    7   26 1
  21    8   27 1
  22    8   28 1
  23   10   11 1
  24   10   29 1
  25   11   12 1
  26   11   13 1
  27   11   30 1
  28   12   31 1
  29   12   32 1
  30   12   33 1
  31   13   14 1
  32   13   15 2
  33   14   34 1

#	End of record

