#	Name: ASD01916453
#	Creating user name:	WinNT
#	Creation time:	15. 06. 2019 20:07

#	Modifying user name:	WinNT
#	Modification time:	15. 06. 2019 20:07

#	Program:	/corina/corina34_cracker 3.40 0067  02.08.2006

@<TRIPOS>MOLECULE
ASD01916453
  38   40    0    0    0
SMALL
NO_CHARGES


@<TRIPOS>ATOM
   1 C1            -0.2833     1.1451    -0.6432 C.ar    
   2 C2            -0.3372    -0.2164    -0.9437 C.ar    
   3 C3             0.8428    -0.9344    -1.0219 C.ar    
   4 C4             2.0401    -0.2687    -0.7972 C.ar    
   5 C5             2.0208     1.0823    -0.5038 C.ar    
   6 N6             0.8837     1.7439    -0.4351 N.ar    
   7 C7            -1.4952     1.9039    -0.5643 C.1     
   8 C8            -2.4888     2.5259    -0.4997 C.1     
   9 C9            -3.7345     3.3058    -0.4187 C.3     
  10 C10           -3.4043     4.7604    -0.0781 C.3     
  11 N11           -5.3335     5.6975     1.0755 N.2     
  12 N12           -4.6442     5.5366     0.0025 N.pl3   
  13 N13           -5.1865     6.1474    -0.9906 N.2     
  14 C14           -6.2871     6.7445    -0.5680 C.2     
  15 C15           -6.3792     6.4423     0.8030 C.2     
  16 C16           -7.4564     6.8823     1.7606 C.3     
  17 C17           -7.2291     7.5635    -1.3718 C.ar    
  18 C18           -7.7769     8.7264    -0.8349 C.ar    
  19 C19           -8.6521     9.4848    -1.5853 C.ar    
  20 C20           -8.9861     9.0912    -2.8709 C.ar    
  21 C21           -8.4439     7.9351    -3.4084 C.ar    
  22 C22           -7.5631     7.1744    -2.6670 C.ar    
  23 F23           -9.8433     9.8364    -3.6023 F       
  24 H24           -1.2865    -0.7029    -1.1126 H       
  25 H25            0.8328    -1.9895    -1.2524 H       
  26 H26            2.9780    -0.8014    -0.8507 H       
  27 H27            2.9510     1.6025    -0.3285 H       
  28 H28           -4.2515     3.2655    -1.3774 H       
  29 H29           -4.3753     2.8874     0.3575 H       
  30 H30           -2.8874     4.8008     0.8807 H       
  31 H31           -2.7636     5.1788    -0.8543 H       
  32 H32           -7.2190     7.8749     2.1434 H       
  33 H33           -8.4141     6.9128     1.2411 H       
  34 H34           -7.5152     6.1776     2.5901 H       
  35 H35           -7.5173     9.0338     0.1674 H       
  36 H36           -9.0775    10.3863    -1.1697 H       
  37 H37           -8.7074     7.6314    -4.4107 H       
  38 H38           -7.1369     6.2761    -3.0886 H       
@<TRIPOS>BOND
   1    1    2 ar
   2    1    6 ar
   3    1    7 1
   4    2    3 ar
   5    2   24 1
   6    3    4 ar
   7    3   25 1
   8    4    5 ar
   9    4   26 1
  10    5    6 ar
  11    5   27 1
  12    7    8 3
  13    8    9 1
  14    9   10 1
  15    9   28 1
  16    9   29 1
  17   10   12 1
  18   10   30 1
  19   10   31 1
  20   11   12 1
  21   11   15 2
  22   12   13 1
  23   13   14 2
  24   14   15 1
  25   14   17 1
  26   15   16 1
  27   16   32 1
  28   16   33 1
  29   16   34 1
  30   17   18 ar
  31   17   22 ar
  32   18   19 ar
  33   18   35 1
  34   19   20 ar
  35   19   36 1
  36   20   21 ar
  37   20   23 1
  38   21   22 ar
  39   21   37 1
  40   22   38 1

#	End of record

