#	Name: ASD01208537
#	Creating user name:	WinNT
#	Creation time:	15. 06. 2019 19:10

#	Modifying user name:	WinNT
#	Modification time:	15. 06. 2019 19:10

#	Program:	/corina/corina34_cracker 3.40 0067  02.08.2006

@<TRIPOS>MOLECULE
ASD01208537
  17   17    0    0    0
SMALL
NO_CHARGES


@<TRIPOS>ATOM
   1 C1            -0.0167     1.3835     0.0096 C.ar    
   2 C2             0.0021    -0.0041     0.0020 C.ar    
   3 C3             1.2080    -0.6799    -0.0127 C.ar    
   4 C4             2.3977     0.0250    -0.0202 C.ar    
   5 C5             2.3832     1.4123    -0.0127 C.ar    
   6 C6             1.1747     2.0920     0.0021 C.ar    
   7 O7            -1.2025     2.0474     0.0189 O.3     
   8 O8             3.5527     2.1045    -0.0192 O.3     
   9 C9             4.7594     1.3393    -0.0339 C.3     
  10 Br10           1.2307    -2.5707    -0.0218 Br      
  11 H11           -0.9260    -0.5564     0.0079 H       
  12 H12            3.3388    -0.5048    -0.0317 H       
  13 H13            1.1618     3.1719     0.0080 H       
  14 H14           -1.5415     2.2348     0.9049 H       
  15 H15            4.7989     0.7060     0.8524 H       
  16 H16            4.7833     0.7156    -0.9275 H       
  17 H17            5.6166     2.0126    -0.0378 H       
@<TRIPOS>BOND
   1    1    2 ar
   2    1    6 ar
   3    1    7 1
   4    2    3 ar
   5    2   11 1
   6    3    4 ar
   7    3   10 1
   8    4    5 ar
   9    4   12 1
  10    5    6 ar
  11    5    8 1
  12    6   13 1
  13    7   14 1
  14    8    9 1
  15    9   15 1
  16    9   16 1
  17    9   17 1

#	End of record

