#	Name: ASD01440013
#	Creating user name:	WinNT
#	Creation time:	15. 06. 2019 19:20

#	Modifying user name:	WinNT
#	Modification time:	15. 06. 2019 19:20

#	Program:	/corina/corina34_cracker 3.40 0067  02.08.2006

@<TRIPOS>MOLECULE
ASD01440013
  62   65    0    0    0
SMALL
NO_CHARGES


@<TRIPOS>ATOM
   1 N1            -0.0210     1.4688     0.0396 N.3     
   2 C2            -0.0001     0.0006     0.0175 C.3     
   3 C3             0.6754    -0.4819    -1.2682 C.3     
   4 C4             2.1031     0.0684    -1.3265 C.3     
   5 C5             2.0558     1.5971    -1.2531 C.3     
   6 C6             1.3403     2.0194     0.0321 C.3     
   7 C7             0.7160    -1.9883    -1.2804 C.2     
   8 O8             1.7771    -2.5637    -1.3341 O.2     
   9 O9            -0.4267    -2.6909    -1.2315 O.3     
  10 C10           -0.7841     1.9671     1.1917 C.3     
  11 C11           -0.5862     3.4201     1.3199 C.1     
  12 C12           -0.4284     4.5790     1.4221 C.1     
  13 C13           -0.2360     5.9925     1.5469 C.ar    
  14 C14           -0.8648     6.6977     2.5758 C.ar    
  15 C15           -0.6746     8.0638     2.6906 C.ar    
  16 C16            0.1372     8.7302     1.7879 C.ar    
  17 C17            0.7624     8.0349     0.7658 C.ar    
  18 C18            0.5849     6.6698     0.6447 C.ar    
  19 F19            1.5524     8.6921    -0.1112 F       
  20 F20           -1.2819     8.7483     3.6845 F       
  21 F21           -1.6571     6.0480     3.4563 F       
  22 C22            2.9093    -0.4754    -0.1454 C.3     
  23 C23            4.3664    -0.0263    -0.2725 C.3     
  24 C24            5.1605    -0.5620     0.8909 C.2     
  25 O25            4.6149    -1.2365     1.7381 O.2     
  26 N26            9.3162     0.2989     1.1902 N.ar    
  27 C27            8.6389     0.6642     0.1323 C.ar    
  28 C28            7.2793     0.4072    -0.0134 C.ar    
  29 C29            6.5975    -0.2667     0.9987 C.ar    
  30 C30            7.3735    -0.6674     2.1741 C.ar    
  31 C31            6.7844    -1.3475     3.2424 C.ar    
  32 C32            7.5572    -1.7043     4.3275 C.ar    
  33 C33            8.9196    -1.3902     4.3637 C.ar    
  34 C34            9.5141    -0.7290     3.3355 C.ar    
  35 C35            8.7554    -0.3501     2.2122 C.ar    
  36 O36            6.9905    -2.3657     5.3696 O.3     
  37 C37            7.8448    -2.7069     6.4631 C.3     
  38 H38            0.5555    -0.3677     0.8799 H       
  39 H39           -1.0216    -0.3777     0.0551 H       
  40 H40            0.1125    -0.1255    -2.1309 H       
  41 H41            2.5733    -0.2370    -2.2612 H       
  42 H42            3.0714     1.9930    -1.2512 H       
  43 H43            1.5146     1.9863    -2.1156 H       
  44 H44            1.2923     3.1073     0.0804 H       
  45 H45            1.8896     1.6416     0.8945 H       
  46 H46           -0.3502    -3.6548    -1.2417 H       
  47 H47           -1.8433     1.7563     1.0445 H       
  48 H48           -0.4376     1.4718     2.0987 H       
  49 H49            0.2831     9.7963     1.8810 H       
  50 H50            1.0774     6.1287    -0.1497 H       
  51 H51            2.4914    -0.0938     0.7862 H       
  52 H52            2.8635    -1.5645    -0.1449 H       
  53 H53            4.7842    -0.4079    -1.2041 H       
  54 H54            4.4121     1.0627    -0.2729 H       
  55 H55            9.1554     1.1871    -0.6590 H       
  56 H56            6.7568     0.7264    -0.9031 H       
  57 H57            5.7326    -1.5915     3.2191 H       
  58 H58            9.5086    -1.6772     5.2223 H       
  59 H59           10.5673    -0.4943     3.3806 H       
  60 H60            8.6484    -3.3524     6.1087 H       
  61 H61            8.2700    -1.7982     6.8893 H       
  62 H62            7.2678    -3.2303     7.2254 H       
@<TRIPOS>BOND
   1    1    2 1
   2    1    6 1
   3    1   10 1
   4    2    3 1
   5    2   38 1
   6    2   39 1
   7    3    4 1
   8    3    7 1
   9    3   40 1
  10    4    5 1
  11    4   22 1
  12    4   41 1
  13    5    6 1
  14    5   42 1
  15    5   43 1
  16    6   44 1
  17    6   45 1
  18    7    8 2
  19    7    9 1
  20    9   46 1
  21   10   11 1
  22   10   47 1
  23   10   48 1
  24   11   12 3
  25   12   13 1
  26   13   14 ar
  27   13   18 ar
  28   14   15 ar
  29   14   21 1
  30   15   16 ar
  31   15   20 1
  32   16   17 ar
  33   16   49 1
  34   17   18 ar
  35   17   19 1
  36   18   50 1
  37   22   23 1
  38   22   51 1
  39   22   52 1
  40   23   24 1
  41   23   53 1
  42   23   54 1
  43   24   25 2
  44   24   29 1
  45   26   27 ar
  46   26   35 ar
  47   27   28 ar
  48   27   55 1
  49   28   29 ar
  50   28   56 1
  51   29   30 ar
  52   30   31 ar
  53   30   35 ar
  54   31   32 ar
  55   31   57 1
  56   32   33 ar
  57   32   36 1
  58   33   34 ar
  59   33   58 1
  60   34   35 ar
  61   34   59 1
  62   36   37 1
  63   37   60 1
  64   37   61 1
  65   37   62 1

#	End of record

