#	Name: ASD04881106
#	Creating user name:	WinNT
#	Creation time:	15. 06. 2019 20:53

#	Modifying user name:	WinNT
#	Modification time:	15. 06. 2019 20:53

#	Program:	/corina/corina34_cracker 3.40 0067  02.08.2006

@<TRIPOS>MOLECULE
ASD04881106
  83   88    0    0    0
SMALL
NO_CHARGES


@<TRIPOS>ATOM
   1 C1             0.4806     1.0602    -0.4868 C.2     
   2 C2             1.6920     1.6325    -0.7265 C.2     
   3 C3             2.0783     3.0231    -0.4269 C.2     
   4 O4             1.2759     3.7803     0.0851 O.2     
   5 N5             2.4794     0.6793    -1.2947 N.2     
   6 C6             1.7895    -0.4169    -1.3980 C.2     
   7 O7             0.5582    -0.2118    -0.9095 O.3     
   8 N8             3.3207     3.4555    -0.7202 N.am    
   9 C9             3.6546     4.8039    -0.5371 C.ar    
  10 C10            4.9529     5.1579    -0.1581 C.ar    
  11 C11            5.2856     6.4950     0.0234 C.ar    
  12 C12            4.3379     7.4761    -0.1688 C.ar    
  13 C13            3.0384     7.1292    -0.5476 C.ar    
  14 C14            2.7026     5.7852    -0.7364 C.ar    
  15 C15            2.0235     8.1800    -0.7529 C.2     
  16 O16            0.8929     7.8772    -1.0825 O.2     
  17 N17            2.3494     9.4756    -0.5752 N.am    
  18 N18            5.9138     4.1694     0.0381 N.3     
  19 C19            5.5785     3.3319     1.1982 C.3     
  20 C20            6.6133     2.2122     1.3318 C.3     
  21 N21            7.9517     2.8008     1.4801 N.3     
  22 C22            8.2870     3.6383     0.3200 C.3     
  23 C23            7.2521     4.7580     0.1864 C.3     
  24 C24            8.9156     1.8093     1.6769 C.ar    
  25 C25            8.9090     1.0536     2.8428 C.ar    
  26 C26            9.8631     0.0739     3.0340 C.ar    
  27 C27           10.8247    -0.1553     2.0667 C.ar    
  28 C28           10.8341     0.5949     0.9053 C.ar    
  29 C29            9.8792     1.5727     0.7051 C.ar    
  30 C30            7.8622     1.3033     3.8977 C.3     
  31 C31            1.3416    10.5191    -0.7791 C.3     
  32 C32            1.7147    11.7558     0.0409 C.3     
  33 C33            1.6512    11.4175     1.5317 C.3     
  34 N34            2.0085    12.6016     2.3168 N.am    
  35 C35            2.2939    -1.7140    -1.9762 C.3     
  36 C36            2.2951    -2.9415    -1.0628 C.3     
  37 C37            1.2740    -2.8329    -2.1970 C.3     
  38 C38            1.0460    13.6049     2.7868 C.3     
  39 C39            1.8911    14.8420     3.1636 C.3     
  40 C40            3.2615    14.2017     3.4846 C.3     
  41 C41            3.2592    12.9057     2.7042 C.2     
  42 C42            1.2836    10.8893    -2.2625 C.3     
  43 O43            4.2430    12.2393     2.4612 O.2     
  44 H44           -0.3781     1.5372    -0.0378 H       
  45 H45            3.9836     2.8332    -1.0581 H       
  46 H46            6.2894     6.7655     0.3162 H       
  47 H47            4.5993     8.5142    -0.0263 H       
  48 H48            1.7002     5.5144    -1.0335 H       
  49 H49            3.2513     9.7172    -0.3122 H       
  50 H50            5.5844     3.9422     2.1012 H       
  51 H51            4.5885     2.8974     1.0591 H       
  52 H52            6.3831     1.6069     2.2086 H       
  53 H53            6.5884     1.5856     0.4403 H       
  54 H54            9.2769     4.0728     0.4591 H       
  55 H55            8.2810     3.0279    -0.5830 H       
  56 H56            7.4824     5.3632    -0.6904 H       
  57 H57            7.2771     5.3846     1.0779 H       
  58 H58            9.8586    -0.5139     3.9400 H       
  59 H59           11.5702    -0.9217     2.2191 H       
  60 H60           11.5864     0.4134     0.1520 H       
  61 H61            9.8844     2.1553    -0.2042 H       
  62 H62            7.0243     0.6227     3.7464 H       
  63 H63            8.2934     1.1349     4.8845 H       
  64 H64            7.5117     2.3328     3.8252 H       
  65 H65            0.3672    10.1509    -0.4581 H       
  66 H66            2.7256    12.0715    -0.2173 H       
  67 H67            1.0150    12.5622    -0.1788 H       
  68 H68            0.6403    11.1018     1.7898 H       
  69 H69            2.3509    10.6111     1.7514 H       
  70 H70            3.1056    -1.6229    -2.6979 H       
  71 H71            3.1075    -3.6580    -1.1838 H       
  72 H72            1.9312    -2.8108    -0.0437 H       
  73 H73            0.2382    -2.6309    -1.9241 H       
  74 H74            1.4146    -3.4781    -3.0642 H       
  75 H75            0.3440    13.8557     1.9916 H       
  76 H76            0.5104    13.2337     3.6605 H       
  77 H77            1.9700    15.5313     2.3229 H       
  78 H78            1.4799    15.3432     4.0398 H       
  79 H79            4.0726    14.8493     3.1517 H       
  80 H80            3.3473    13.9995     4.5523 H       
  81 H81            2.2580    11.2576    -2.5835 H       
  82 H82            1.0177    10.0083    -2.8467 H       
  83 H83            0.5337    11.6657    -2.4142 H       
@<TRIPOS>BOND
   1    1    7 1
   2    1    2 2
   3    1   44 1
   4    2    3 1
   5    2    5 1
   6    3    4 2
   7    3    8 am
   8    5    6 2
   9    6    7 1
  10    6   35 1
  11    8    9 1
  12    8   45 1
  13    9   10 ar
  14    9   14 ar
  15   10   11 ar
  16   10   18 1
  17   11   12 ar
  18   11   46 1
  19   12   13 ar
  20   12   47 1
  21   13   14 ar
  22   13   15 1
  23   14   48 1
  24   15   16 2
  25   15   17 am
  26   17   31 1
  27   17   49 1
  28   18   19 1
  29   18   23 1
  30   19   20 1
  31   19   50 1
  32   19   51 1
  33   20   21 1
  34   20   52 1
  35   20   53 1
  36   21   22 1
  37   21   24 1
  38   22   23 1
  39   22   54 1
  40   22   55 1
  41   23   56 1
  42   23   57 1
  43   24   25 ar
  44   24   29 ar
  45   25   26 ar
  46   25   30 1
  47   26   27 ar
  48   26   58 1
  49   27   28 ar
  50   27   59 1
  51   28   29 ar
  52   28   60 1
  53   29   61 1
  54   30   62 1
  55   30   63 1
  56   30   64 1
  57   31   32 1
  58   31   42 1
  59   31   65 1
  60   32   33 1
  61   32   66 1
  62   32   67 1
  63   33   34 1
  64   33   68 1
  65   33   69 1
  66   34   38 1
  67   34   41 am
  68   35   36 1
  69   35   37 1
  70   35   70 1
  71   36   37 1
  72   36   71 1
  73   36   72 1
  74   37   73 1
  75   37   74 1
  76   38   39 1
  77   38   75 1
  78   38   76 1
  79   39   40 1
  80   39   77 1
  81   39   78 1
  82   40   41 1
  83   40   79 1
  84   40   80 1
  85   41   43 2
  86   42   81 1
  87   42   82 1
  88   42   83 1

#	End of record

