#	Name: ASD04590253
#	Creating user name:	WinNT
#	Creation time:	15. 06. 2019 20:50

#	Modifying user name:	WinNT
#	Modification time:	15. 06. 2019 20:50

#	Program:	/corina/corina34_cracker 3.40 0067  02.08.2006

@<TRIPOS>MOLECULE
ASD04590253
  49   52    0    0    0
SMALL
NO_CHARGES


@<TRIPOS>ATOM
   1 N1            -0.0153     1.2802     0.0091 N.pl3   
   2 N2             0.0021    -0.0041     0.0020 N.2     
   3 C3             1.2456    -0.4440    -0.0122 C.2     
   4 C4             2.0904     0.6960    -0.0142 C.2     
   5 C5             1.2524     1.7667    -0.0004 C.2     
   6 C6             1.6765    -1.8546    -0.0235 C.2     
   7 N7             0.7571    -2.8402    -0.0200 N.am    
   8 N8             3.4930     0.7146    -0.0270 N.am    
   9 O9             2.8611    -2.1284    -0.0359 O.2     
  10 C10            4.1514     1.8906    -0.0271 C.2     
  11 C11            5.6174     1.9099    -0.0406 C.2     
  12 O12            3.5290     2.9365    -0.0159 O.2     
  13 C13            1.1851    -4.2412    -0.0312 C.3     
  14 C14            1.8482    -6.1840     1.3900 C.3     
  15 C15            1.4606    -4.7035     1.4023 C.3     
  16 C16            6.3882     3.0336    -0.0419 C.2     
  17 C17            0.0781    -5.1096    -0.6354 C.3     
  18 C18            0.5058    -6.5782    -0.5886 C.3     
  19 N19            0.7567    -6.9722     0.8036 N.3     
  20 C20            7.7473     2.7677    -0.0554 C.2     
  21 C21            8.0610     1.4449    -0.0647 C.2     
  22 S22            6.6493     0.4876    -0.0498 S.3     
  23 C23            8.7757     3.8378    -0.0593 C.ar    
  24 C24           10.1290     3.5069    -0.0730 C.ar    
  25 C25            8.3912     5.1770    -0.0550 C.ar    
  26 C26            9.3518     6.1681    -0.0586 C.ar    
  27 C27           10.6940     5.8339    -0.0669 C.ar    
  28 C28           11.0812     4.5060    -0.0765 C.ar    
  29 H29           -0.8184     1.8242     0.0160 H       
  30 H30            1.5406     2.8076     0.0024 H       
  31 H31           -0.1879    -2.6218    -0.0102 H       
  32 H32            3.9890    -0.1190    -0.0359 H       
  33 H33            2.0921    -4.3403    -0.6276 H       
  34 H34            2.7524    -6.3177     0.7962 H       
  35 H35            2.0311    -6.5200     2.4107 H       
  36 H36            2.2772    -4.1170     1.8232 H       
  37 H37            0.5642    -4.5670     2.0073 H       
  38 H38            5.9795     4.0332    -0.0336 H       
  39 H39           -0.8400    -4.9795    -0.0625 H       
  40 H40           -0.0930    -4.8132    -1.6703 H       
  41 H41           -0.2863    -7.2006    -1.0050 H       
  42 H42            1.4163    -6.7102    -1.1731 H       
  43 H43            0.9479    -7.9606     0.8709 H       
  44 H44            9.0675     1.0534    -0.0760 H       
  45 H45           10.4325     2.4704    -0.0805 H       
  46 H46            7.3435     5.4391    -0.0492 H       
  47 H47            9.0549     7.2065    -0.0553 H       
  48 H48           11.4423     6.6126    -0.0701 H       
  49 H49           12.1306     4.2506    -0.0826 H       
@<TRIPOS>BOND
   1    1    2 1
   2    1    5 1
   3    1   29 1
   4    2    3 2
   5    3    4 1
   6    3    6 1
   7    4    5 2
   8    4    8 1
   9    5   30 1
  10    6    7 am
  11    6    9 2
  12    7   13 1
  13    7   31 1
  14    8   10 am
  15    8   32 1
  16   10   12 2
  17   10   11 1
  18   11   16 2
  19   11   22 1
  20   13   17 1
  21   13   15 1
  22   13   33 1
  23   14   15 1
  24   14   19 1
  25   14   34 1
  26   14   35 1
  27   15   36 1
  28   15   37 1
  29   16   20 1
  30   16   38 1
  31   17   18 1
  32   17   39 1
  33   17   40 1
  34   18   19 1
  35   18   41 1
  36   18   42 1
  37   19   43 1
  38   20   21 2
  39   20   23 1
  40   21   22 1
  41   21   44 1
  42   23   24 ar
  43   23   25 ar
  44   24   28 ar
  45   24   45 1
  46   25   26 ar
  47   25   46 1
  48   26   27 ar
  49   26   47 1
  50   27   28 ar
  51   27   48 1
  52   28   49 1

#	End of record

