#	Name: ASD07931894
#	Creating user name:	WinNT
#	Creation time:	15. 06. 2019 21:13

#	Modifying user name:	WinNT
#	Modification time:	15. 06. 2019 21:13

#	Program:	/corina/corina34_cracker 3.40 0067  02.08.2006

@<TRIPOS>MOLECULE
ASD07931894
  32   33    0    0    0
SMALL
NO_CHARGES


@<TRIPOS>ATOM
   1 O1            -0.0173     1.4282     0.0099 O.3     
   2 C2             0.0021    -0.0041     0.0020 C.3     
   3 C3             1.4788    -0.4503    -0.0584 C.3     
   4 C4             2.1807     0.8103    -0.6330 C.3     
   5 C5             1.3259     1.9371    -0.0002 C.3     
   6 C6            -0.6401    -0.5310     1.2594 C.2     
   7 O7            -1.0156     0.2368     2.1134 O.2     
   8 O8            -0.7950    -1.8533     1.4305 O.3     
   9 C9             1.4053     3.1872    -0.8381 C.ar    
  10 C10            2.2823     4.1976    -0.4905 C.ar    
  11 C11            2.3551     5.3443    -1.2591 C.ar    
  12 C12            1.5513     5.4804    -2.3754 C.ar    
  13 C13            0.6750     4.4695    -2.7235 C.ar    
  14 C14            0.6053     3.3210    -1.9574 C.ar    
  15 C15            1.6300     6.7309    -3.2127 C.3     
  16 F16            2.5917     6.5616    -4.2145 F       
  17 F17            0.3842     6.9786    -3.7992 F       
  18 F18            1.9870     7.8135    -2.4016 F       
  19 C19           -1.4215    -2.2892     2.6658 C.3     
  20 H20           -0.5328    -0.3763    -0.8718 H       
  21 H21            1.8546    -0.6834     0.9378 H       
  22 H22            1.5998    -1.3011    -0.7289 H       
  23 H23            3.2169     0.8691    -0.2999 H       
  24 H24            2.1179     0.8334    -1.7209 H       
  25 H25            1.6611     2.1405     1.0169 H       
  26 H26            2.9103     4.0913     0.3817 H       
  27 H27            3.0397     6.1341    -0.9871 H       
  28 H28            0.0467     4.5760    -3.5955 H       
  29 H29           -0.0767     2.5297    -2.2314 H       
  30 H30           -1.4855    -3.3772     2.6765 H       
  31 H31           -0.8259    -1.9518     3.5140 H       
  32 H32           -2.4236    -1.8656     2.7341 H       
@<TRIPOS>BOND
   1    1    2 1
   2    1    5 1
   3    2    3 1
   4    2    6 1
   5    2   20 1
   6    3    4 1
   7    3   21 1
   8    3   22 1
   9    4    5 1
  10    4   23 1
  11    4   24 1
  12    5    9 1
  13    5   25 1
  14    6    7 2
  15    6    8 1
  16    8   19 1
  17    9   10 ar
  18    9   14 ar
  19   10   11 ar
  20   10   26 1
  21   11   12 ar
  22   11   27 1
  23   12   13 ar
  24   12   15 1
  25   13   14 ar
  26   13   28 1
  27   14   29 1
  28   15   16 1
  29   15   17 1
  30   15   18 1
  31   19   30 1
  32   19   31 1
  33   19   32 1

#	End of record

