#	Name: ASD01910373
#	Creating user name:	WinNT
#	Creation time:	15. 06. 2019 19:55

#	Modifying user name:	WinNT
#	Modification time:	15. 06. 2019 19:55

#	Program:	/corina/corina34_cracker 3.40 0067  02.08.2006

@<TRIPOS>MOLECULE
ASD01910373
  49   51    0    0    0
SMALL
NO_CHARGES


@<TRIPOS>ATOM
   1 C1            -0.1693     1.2553    -1.6331 C.ar    
   2 C2            -0.1238    -0.1515    -1.3699 C.1     
   3 C3            -0.0864    -1.3049    -1.1542 C.1     
   4 C4            -0.0409    -2.7118    -0.8910 C.ar    
   5 C5            -1.2096    -3.3964    -0.5394 C.ar    
   6 C6            -1.1655    -4.7382    -0.2890 C.ar    
   7 C7             0.0469    -5.4278    -0.3835 C.ar    
   8 C8             1.2151    -4.7444    -0.7343 C.ar    
   9 C9             1.1713    -3.4038    -0.9910 C.ar    
  10 C10            0.0939    -6.8782    -0.1122 C.2     
  11 O11           -0.9217    -7.4727     0.1934 O.2     
  12 N12            1.2626    -7.5433    -0.2032 N.am    
  13 C13            0.9961     1.9421    -1.9846 C.ar    
  14 C14            0.9445     3.2971    -2.2365 C.ar    
  15 C15           -0.2573     3.9767    -2.1416 C.ar    
  16 C16           -1.4153     3.3034    -1.7941 C.ar    
  17 C17           -1.3805     1.9474    -1.5454 C.ar    
  18 C18            1.3092    -8.9826     0.0660 C.3     
  19 C19            2.7432    -9.4874    -0.1058 C.3     
  20 C20            2.7682   -11.0106     0.0366 C.3     
  21 C21            4.1931   -11.5377    -0.2151 C.3     
  22 C22            4.5912   -12.2643     1.0901 C.3     
  23 C23            3.2215   -12.5902     1.7368 C.3     
  24 N24            2.4015   -11.3937     1.4172 N.3     
  25 C25            0.9674   -11.6965     1.5162 C.3     
  26 H26           -2.1462    -2.8636    -0.4656 H       
  27 H27           -2.0675    -5.2666    -0.0175 H       
  28 H28            2.1515    -5.2776    -0.8064 H       
  29 H29            2.0737    -2.8760    -1.2621 H       
  30 H30            2.0728    -7.0690    -0.4469 H       
  31 H31            1.9348     1.4132    -2.0584 H       
  32 H32            1.8442     3.8291    -2.5082 H       
  33 H33           -0.2915     5.0378    -2.3394 H       
  34 H34           -2.3495     3.8405    -1.7217 H       
  35 H35           -2.2850     1.4232    -1.2743 H       
  36 H36            0.9770    -9.1722     1.0867 H       
  37 H37            0.6543    -9.5042    -0.6320 H       
  38 H38            3.1107    -9.2087    -1.0934 H       
  39 H39            3.3796    -9.0406     0.6581 H       
  40 H40            2.0748   -11.4611    -0.6736 H       
  41 H41            4.1959   -12.2354    -1.0525 H       
  42 H42            4.8741   -10.7091    -0.4097 H       
  43 H43            5.1412   -13.1792     0.8698 H       
  44 H44            5.1755   -11.6074     1.7344 H       
  45 H45            2.7878   -13.4845     1.2894 H       
  46 H46            3.3240   -12.7094     2.8154 H       
  47 H47            0.7519   -12.1175     2.4983 H       
  48 H48            0.3924   -10.7807     1.3794 H       
  49 H49            0.6939   -12.4160     0.7445 H       
@<TRIPOS>BOND
   1    1    2 1
   2    1   13 ar
   3    1   17 ar
   4    2    3 3
   5    3    4 1
   6    4    5 ar
   7    4    9 ar
   8    5    6 ar
   9    5   26 1
  10    6    7 ar
  11    6   27 1
  12    7    8 ar
  13    7   10 1
  14    8    9 ar
  15    8   28 1
  16    9   29 1
  17   10   11 2
  18   10   12 am
  19   12   18 1
  20   12   30 1
  21   13   14 ar
  22   13   31 1
  23   14   15 ar
  24   14   32 1
  25   15   16 ar
  26   15   33 1
  27   16   17 ar
  28   16   34 1
  29   17   35 1
  30   18   19 1
  31   18   36 1
  32   18   37 1
  33   19   20 1
  34   19   38 1
  35   19   39 1
  36   20   21 1
  37   20   24 1
  38   20   40 1
  39   21   22 1
  40   21   41 1
  41   21   42 1
  42   22   23 1
  43   22   43 1
  44   22   44 1
  45   23   24 1
  46   23   45 1
  47   23   46 1
  48   24   25 1
  49   25   47 1
  50   25   48 1
  51   25   49 1

#	End of record

