#	Name: ASD05170111
#	Creating user name:	WinNT
#	Creation time:	15. 06. 2019 20:57

#	Modifying user name:	WinNT
#	Modification time:	15. 06. 2019 20:57

#	Program:	/corina/corina34_cracker 3.40 0067  02.08.2006

@<TRIPOS>MOLECULE
ASD05170111
  43   46    0    0    0
SMALL
NO_CHARGES


@<TRIPOS>ATOM
   1 C1            -0.2251     1.4612    -1.1266 C.ar    
   2 C2            -0.2367     0.0861    -1.2807 C.ar    
   3 C3             0.9602    -0.6057    -1.1446 C.ar    
   4 C4             2.1168     0.0949    -0.8616 C.ar    
   5 N5             2.0951     1.4068    -0.7203 N.ar    
   6 C6             0.9754     2.0996    -0.8427 C.ar    
   7 O7             0.9995     3.4477    -0.6893 O.3     
   8 C8             2.2647     4.0451    -0.3984 C.3     
   9 C9             2.0968     5.5366    -0.2633 C.2     
  10 C10            0.8950     6.2458    -0.3927 C.2     
  11 N11            3.0494     6.3999     0.0019 N.2     
  12 C12            1.2322     7.5542    -0.1920 C.2     
  13 C13            0.4247     8.7834    -0.1923 C.2     
  14 N14            2.5860     7.5868     0.0606 N.pl3   
  15 C15            3.2730     8.8497     0.3566 C.3     
  16 C16            2.5572     9.9930    -0.3612 C.3     
  17 N17            1.1094     9.9527    -0.1710 N.am    
  18 O18           -0.7912     8.7523    -0.2111 O.2     
  19 C19            3.2521     9.1012     1.8657 C.3     
  20 Cl20           1.0021    -2.3316    -1.3274 Cl      
  21 C21            0.4149    11.1474     0.0423 C.ar    
  22 C22            0.3177    12.0865    -0.9761 C.ar    
  23 C23           -0.3703    13.2677    -0.7632 C.ar    
  24 C24           -0.9614    13.5141     0.4646 C.ar    
  25 C25           -0.8657    12.5790     1.4815 C.ar    
  26 C26           -0.1835    11.3940     1.2709 C.ar    
  27 F27           -1.4429    12.8221     2.6785 F       
  28 F28           -0.4651    14.1816    -1.7536 F       
  29 H29           -1.1367     2.0310    -1.2301 H       
  30 H30           -1.1553    -0.4373    -1.5015 H       
  31 H31            3.0502    -0.4377    -0.7542 H       
  32 H32            2.6531     3.6371     0.5347 H       
  33 H33            2.9627     3.8298    -1.2075 H       
  34 H34           -0.0850     5.8449    -0.6053 H       
  35 H35            4.3051     8.7924     0.0108 H       
  36 H36            2.9362    10.9410     0.0205 H       
  37 H37            2.7760     9.9318    -1.4272 H       
  38 H38            3.7594     8.2833     2.3774 H       
  39 H39            3.7624    10.0391     2.0849 H       
  40 H40            2.2195     9.1603     2.2099 H       
  41 H41            0.7792    11.8950    -1.9336 H       
  42 H42           -1.4975    14.4370     0.6294 H       
  43 H43           -0.1129    10.6631     2.0628 H       
@<TRIPOS>BOND
   1    1    2 ar
   2    1    6 ar
   3    1   29 1
   4    2    3 ar
   5    2   30 1
   6    3    4 ar
   7    3   20 1
   8    4    5 ar
   9    4   31 1
  10    5    6 ar
  11    6    7 1
  12    7    8 1
  13    8    9 1
  14    8   32 1
  15    8   33 1
  16    9   11 2
  17    9   10 1
  18   10   12 2
  19   10   34 1
  20   11   14 1
  21   12   14 1
  22   12   13 1
  23   13   17 am
  24   13   18 2
  25   14   15 1
  26   15   16 1
  27   15   19 1
  28   15   35 1
  29   16   17 1
  30   16   36 1
  31   16   37 1
  32   17   21 1
  33   19   38 1
  34   19   39 1
  35   19   40 1
  36   21   22 ar
  37   21   26 ar
  38   22   23 ar
  39   22   41 1
  40   23   24 ar
  41   23   28 1
  42   24   25 ar
  43   24   42 1
  44   25   26 ar
  45   25   27 1
  46   26   43 1

#	End of record

