#	Name: ASD01910070
#	Creating user name:	WinNT
#	Creation time:	15. 06. 2019 19:55

#	Modifying user name:	WinNT
#	Modification time:	15. 06. 2019 19:55

#	Program:	/corina/corina34_cracker 3.40 0067  02.08.2006

@<TRIPOS>MOLECULE
ASD01910070
  44   47    0    0    0
SMALL
NO_CHARGES


@<TRIPOS>ATOM
   1 C1             0.0011     1.1848     0.3637 C.2     
   2 N2             0.0433     0.0957    -0.3565 N.2     
   3 N3             1.3803    -0.2288    -0.6138 N.pl3   
   4 C4             2.1656     0.7096    -0.0197 C.2     
   5 C5             1.3216     1.6120     0.6031 C.2     
   6 C6             1.8314    -1.3297    -1.3542 C.ar    
   7 N7             3.5550     0.7535    -0.0351 N.am    
   8 C8             4.2658    -0.1665     0.6467 C.2     
   9 C9             5.7406    -0.1823     0.5488 C.ar    
  10 O10            3.6940    -0.9834     1.3422 O.2     
  11 C11            1.2273    -2.5698    -1.1951 C.ar    
  12 C12            1.6739    -3.6528    -1.9266 C.ar    
  13 C13            2.7219    -3.5033    -2.8163 C.ar    
  14 C14            3.3256    -2.2696    -2.9769 C.ar    
  15 C15            2.8797    -1.1815    -2.2525 C.ar    
  16 C16            6.4769    -1.1325     1.2529 C.ar    
  17 C17            7.8673    -1.1405     1.1545 C.ar    
  18 C18            8.5129    -0.1969     0.3516 C.ar    
  19 C19            7.7767     0.7424    -0.3431 C.ar    
  20 C20            6.3990     0.7522    -0.2546 C.ar    
  21 C21            1.7315     2.8074     1.3789 C.ar    
  22 C22            1.1556     4.0478     1.1092 C.ar    
  23 C23            1.5406     5.1568     1.8347 C.ar    
  24 C24            2.4961     5.0392     2.8281 C.ar    
  25 C25            3.0714     3.8108     3.0999 C.ar    
  26 C26            2.6900     2.6939     2.3846 C.ar    
  27 C27            8.6322    -2.1134     1.8751 C.1     
  28 N28            9.2390    -2.8851     2.4467 N.1     
  29 H29           -0.8948     1.6768     0.7125 H       
  30 H30            4.0128     1.4462    -0.5364 H       
  31 H31            0.4092    -2.6873    -0.4999 H       
  32 H32            1.2044    -4.6176    -1.8033 H       
  33 H33            3.0698    -4.3519    -3.3867 H       
  34 H34            4.1441    -2.1560    -3.6723 H       
  35 H35            3.3514    -0.2181    -2.3787 H       
  36 H36            5.9727    -1.8595     1.8724 H       
  37 H37            9.5901    -0.2018     0.2743 H       
  38 H38            8.2807     1.4701    -0.9619 H       
  39 H39            5.8293     1.4896    -0.8006 H       
  40 H40            0.4097     4.1409     0.3336 H       
  41 H41            1.0953     6.1184     1.6264 H       
  42 H42            2.7944     5.9097     3.3934 H       
  43 H43            3.8172     3.7249     3.8763 H       
  44 H44            3.1396     1.7354     2.5979 H       
@<TRIPOS>BOND
   1    1    2 2
   2    1    5 1
   3    1   29 1
   4    2    3 1
   5    3    4 1
   6    3    6 1
   7    4    5 2
   8    4    7 1
   9    5   21 1
  10    6   11 ar
  11    6   15 ar
  12    7    8 am
  13    7   30 1
  14    8    9 1
  15    8   10 2
  16    9   16 ar
  17    9   20 ar
  18   11   12 ar
  19   11   31 1
  20   12   13 ar
  21   12   32 1
  22   13   14 ar
  23   13   33 1
  24   14   15 ar
  25   14   34 1
  26   15   35 1
  27   16   17 ar
  28   16   36 1
  29   17   18 ar
  30   17   27 1
  31   18   19 ar
  32   18   37 1
  33   19   20 ar
  34   19   38 1
  35   20   39 1
  36   21   22 ar
  37   21   26 ar
  38   22   23 ar
  39   22   40 1
  40   23   24 ar
  41   23   41 1
  42   24   25 ar
  43   24   42 1
  44   25   26 ar
  45   25   43 1
  46   26   44 1
  47   27   28 3

#	End of record

