#	Name: ASD00660005
#	Creating user name:	WinNT
#	Creation time:	15. 06. 2019 18:36

#	Modifying user name:	WinNT
#	Modification time:	15. 06. 2019 18:36

#	Program:	/corina/corina34_cracker 3.40 0067  02.08.2006

@<TRIPOS>MOLECULE
ASD00660005
  59   61    0    0    0
SMALL
NO_CHARGES


@<TRIPOS>ATOM
   1 C1             9.1524    -2.5564     5.3542 C.ar    
   2 C2             8.0859    -3.4186     5.1344 C.ar    
   3 C3             7.1992    -3.1957     4.1056 C.ar    
   4 C4             7.3720    -2.0886     3.2704 C.ar    
   5 C5             8.4587    -1.2131     3.4971 C.ar    
   6 C6             9.3445    -1.4582     4.5451 C.ar    
   7 N7             6.5226    -1.8344     2.2474 N.2     
   8 C8             6.6844    -0.7969     1.4639 C.2     
   9 N9             7.7077     0.0981     1.6139 N.am    
  10 C10            8.6169    -0.0576     2.6039 C.2     
  11 C11            7.8153     1.1843     0.7359 C.ar    
  12 C12            8.4667     1.0333    -0.4810 C.ar    
  13 C13            8.5707     2.1060    -1.3448 C.ar    
  14 C14            8.0270     3.3294    -0.9988 C.ar    
  15 C15            7.3780     3.4831     0.2126 C.ar    
  16 C16            7.2657     2.4126     1.0782 C.ar    
  17 O17            9.5324     0.7315     2.7492 O.2     
  18 S18            5.5310    -0.5432     0.1563 S.3     
  19 C19            4.5465    -2.0545     0.3080 C.3     
  20 C20            3.3825    -2.0066    -0.6839 C.3     
  21 C21            2.4407    -0.8603    -0.3100 C.3     
  22 C22            1.2127    -0.8911    -1.2221 C.3     
  23 C23            0.2708     0.2552    -0.8483 C.3     
  24 C24            5.4129    -3.2506     0.0085 C.2     
  25 N25            5.0430    -4.4744     0.4352 N.am    
  26 O26            6.4429    -3.1120    -0.6165 O.2     
  27 C27            5.8852    -5.6372     0.1441 C.3     
  28 C28            7.2692    -5.4324     0.7635 C.3     
  29 C29            5.2425    -6.8933     0.7356 C.3     
  30 C30            6.0236    -5.8001    -1.3709 C.3     
  31 H31            9.8346    -2.7461     6.1696 H       
  32 H32            7.9509    -4.2749     5.7786 H       
  33 H33            6.3739    -3.8734     3.9444 H       
  34 H34           10.1760    -0.7919     4.7213 H       
  35 H35            8.8919     0.0781    -0.7517 H       
  36 H36            9.0776     1.9893    -2.2913 H       
  37 H37            8.1096     4.1667    -1.6759 H       
  38 H38            6.9550     4.4400     0.4804 H       
  39 H39            6.7587     2.5333     2.0241 H       
  40 H40            4.1561    -2.1335     1.3227 H       
  41 H41            3.7691    -1.8457    -1.6902 H       
  42 H42            2.8377    -2.9501    -0.6505 H       
  43 H43            2.1256    -0.9725     0.7274 H       
  44 H44            2.9596     0.0906    -0.4314 H       
  45 H45            1.5277    -0.7789    -2.2596 H       
  46 H46            0.6938    -1.8420    -1.1008 H       
  47 H47           -0.0442     0.1430     0.1891 H       
  48 H48            0.7897     1.2060    -0.9696 H       
  49 H49           -0.6041     0.2332    -1.4981 H       
  50 H50            4.2191    -4.5852     0.9351 H       
  51 H51            7.1706    -5.3162     1.8428 H       
  52 H52            7.8958    -6.2975     0.5469 H       
  53 H53            7.7270    -4.5374     0.3421 H       
  54 H54            4.2566    -7.0392     0.2943 H       
  55 H55            5.8692    -7.7585     0.5190 H       
  56 H56            5.1440    -6.7772     1.8149 H       
  57 H57            6.4815    -4.9052    -1.7923 H       
  58 H58            6.6502    -6.6653    -1.5875 H       
  59 H59            5.0376    -5.9460    -1.8122 H       
@<TRIPOS>BOND
   1    1    2 ar
   2    1    6 ar
   3    1   31 1
   4    2    3 ar
   5    2   32 1
   6    3    4 ar
   7    3   33 1
   8    4    5 ar
   9    4    7 1
  10    5    6 ar
  11    5   10 1
  12    6   34 1
  13    7    8 2
  14    8    9 1
  15    8   18 1
  16    9   10 am
  17    9   11 1
  18   10   17 2
  19   11   12 ar
  20   11   16 ar
  21   12   13 ar
  22   12   35 1
  23   13   14 ar
  24   13   36 1
  25   14   15 ar
  26   14   37 1
  27   15   16 ar
  28   15   38 1
  29   16   39 1
  30   18   19 1
  31   19   20 1
  32   19   24 1
  33   19   40 1
  34   20   21 1
  35   20   41 1
  36   20   42 1
  37   21   22 1
  38   21   43 1
  39   21   44 1
  40   22   23 1
  41   22   45 1
  42   22   46 1
  43   23   47 1
  44   23   48 1
  45   23   49 1
  46   24   25 am
  47   24   26 2
  48   25   27 1
  49   25   50 1
  50   27   28 1
  51   27   30 1
  52   27   29 1
  53   28   51 1
  54   28   52 1
  55   28   53 1
  56   29   54 1
  57   29   55 1
  58   29   56 1
  59   30   57 1
  60   30   58 1
  61   30   59 1

#	End of record

