#	Name: ASD03080004
#	Creating user name:	WinNT
#	Creation time:	15. 06. 2019 20:26

#	Modifying user name:	WinNT
#	Modification time:	15. 06. 2019 20:26

#	Program:	/corina/corina34_cracker 3.40 0067  02.08.2006

@<TRIPOS>MOLECULE
ASD03080004
  27   29    0    0    0
SMALL
NO_CHARGES


@<TRIPOS>ATOM
   1 C1             0.0021    -0.0041     0.0020 C.1     
   2 C2            -0.0173     1.4278     0.0099 C.ar    
   3 C3             1.1796     2.1434     0.0023 C.ar    
   4 C4             1.1519     3.5334     0.0096 C.ar    
   5 C5            -0.0704     4.2044     0.0243 C.ar    
   6 C6            -1.2537     3.4919     0.0318 C.ar    
   7 C7            -1.2352     2.1116     0.0194 C.ar    
   8 N8             0.0175    -1.1399    -0.0042 N.1     
   9 O9             4.4550     4.6912    -0.0149 O.3     
  10 N10            3.6306     3.8018    -0.0118 N.2     
  11 C11            2.4218     4.3023     0.0020 C.2     
  12 N12            2.5424     5.6462     0.0077 N.2     
  13 C13            3.8404     5.8841    -0.0032 C.2     
  14 C14            3.7273     8.3778     0.0117 C.ar    
  15 C15            4.4927     7.2109    -0.0018 C.ar    
  16 C16            5.8882     7.3178    -0.0135 C.ar    
  17 C17            6.4492     8.5830    -0.0112 C.ar    
  18 C18            5.6211     9.6906     0.0025 C.ar    
  19 N19            4.3082     9.5595     0.0133 N.ar    
  20 H20            2.1243     1.6200    -0.0088 H       
  21 H21           -0.0919     5.2841     0.0303 H       
  22 H22           -2.1974     4.0170     0.0436 H       
  23 H23           -2.1636     1.5598     0.0211 H       
  24 H24            2.6494     8.3111     0.0163 H       
  25 H25            6.5112     6.4357    -0.0237 H       
  26 H26            7.5223     8.7041    -0.0196 H       
  27 H27            6.0562    10.6791     0.0047 H       
@<TRIPOS>BOND
   1    1    2 1
   2    1    8 3
   3    2    3 ar
   4    2    7 ar
   5    3    4 ar
   6    3   20 1
   7    4    5 ar
   8    4   11 1
   9    5    6 ar
  10    5   21 1
  11    6    7 ar
  12    6   22 1
  13    7   23 1
  14    9   10 1
  15    9   13 1
  16   10   11 2
  17   11   12 1
  18   12   13 2
  19   13   15 1
  20   14   15 ar
  21   14   19 ar
  22   14   24 1
  23   15   16 ar
  24   16   17 ar
  25   16   25 1
  26   17   18 ar
  27   17   26 1
  28   18   19 ar
  29   18   27 1

#	End of record

