#	Name: ASD01884327
#	Creating user name:	WinNT
#	Creation time:	15. 06. 2019 19:48

#	Modifying user name:	WinNT
#	Modification time:	15. 06. 2019 19:48

#	Program:	/corina/corina34_cracker 3.40 0067  02.08.2006

@<TRIPOS>MOLECULE
ASD01884327
  60   61    0    0    0
SMALL
NO_CHARGES


@<TRIPOS>ATOM
   1 C1            -0.0168     1.3884     0.0097 C.2     
   2 C2             0.0021    -0.0041     0.0020 C.2     
   3 C3            -1.2095    -0.6965     0.0104 C.2     
   4 C4            -2.3831    -0.0157     0.0252 C.2     
   5 N5            -2.4093     1.3392     0.0327 N.am    
   6 C6            -1.2693     2.0558     0.0312 C.2     
   7 O7            -1.3129     3.2741     0.0380 O.2     
   8 C8            -3.6983     2.0352     0.0483 C.3     
   9 C9            -4.1338     2.2698     1.4962 C.3     
  10 C10            1.2059     2.1337     0.0020 C.1     
  11 N11            2.1759     2.7249    -0.0041 N.1     
  12 C12            1.3105    -0.7515    -0.0155 C.3     
  13 N13            1.6901    -1.1066     1.3585 N.3     
  14 C14            2.8286    -2.0348     1.3670 C.3     
  15 C15            3.3074    -2.2375     2.8084 C.3     
  16 N16            2.1593    -2.6540     3.6279 N.am    
  17 C17            0.9308    -1.8477     3.5657 C.3     
  18 C18            0.5456    -1.6603     2.0944 C.3     
  19 C19            2.2312    -3.7455     4.4154 C.2     
  20 C20           -5.4800     2.9967     1.5124 C.3     
  21 C21           -5.9753     3.1206     2.9547 C.3     
  22 C22           -5.3132     4.3926     0.9087 C.3     
  23 O23            3.2543    -4.3999     4.4549 O.2     
  24 O24            1.1693    -4.1107     5.1583 O.3     
  25 C25            1.3182    -5.2966     5.9827 C.3     
  26 C26            2.4625    -5.0867     6.9764 C.3     
  27 C27            0.0183    -5.5520     6.7482 C.3     
  28 C28            1.6306    -6.5009     5.0921 C.3     
  29 H29           -1.2130    -1.7765     0.0046 H       
  30 H30           -3.3137    -0.5638     0.0308 H       
  31 H31           -3.5999     2.9937    -0.4613 H       
  32 H32           -4.4456     1.4275    -0.4619 H       
  33 H33           -4.2323     1.3113     2.0058 H       
  34 H34           -3.3866     2.8775     2.0064 H       
  35 H35            1.2023    -1.6595    -0.6087 H       
  36 H36            2.0835    -0.1207    -0.4544 H       
  37 H37            2.5201    -2.9927     0.9481 H       
  38 H38            3.6402    -1.6204     0.7690 H       
  39 H39            4.0752    -3.0108     2.8339 H       
  40 H40            3.7127    -1.3022     3.1945 H       
  41 H41            0.1274    -2.3632     4.0918 H       
  42 H42            1.1077    -0.8749     4.0245 H       
  43 H43           -0.2985    -0.9743     2.0239 H       
  44 H44            0.2689    -2.6234     1.6654 H       
  45 H45           -6.2051     2.4317     0.9266 H       
  46 H46           -5.2502     3.6856     3.5406 H       
  47 H47           -6.9344     3.6385     2.9663 H       
  48 H48           -6.0942     2.1261     3.3848 H       
  49 H49           -4.5881     4.9575     1.4946 H       
  50 H50           -4.9604     4.3043    -0.1188 H       
  51 H51           -6.2723     4.9105     0.9203 H       
  52 H52            2.2399    -4.2287     7.6108 H       
  53 H53            2.5742    -5.9769     7.5953 H       
  54 H54            3.3885    -4.9047     6.4310 H       
  55 H55           -0.7969    -5.7016     6.0403 H       
  56 H56            0.1301    -6.4423     7.3671 H       
  57 H57           -0.2042    -4.6941     7.3826 H       
  58 H58            2.5567    -6.3189     4.5468 H       
  59 H59            1.7424    -7.3912     5.7110 H       
  60 H60            0.8155    -6.6505     4.3842 H       
@<TRIPOS>BOND
   1    1    2 2
   2    1   10 1
   3    1    6 1
   4    2    3 1
   5    2   12 1
   6    3    4 2
   7    3   29 1
   8    4    5 1
   9    4   30 1
  10    5    6 am
  11    5    8 1
  12    6    7 2
  13    8    9 1
  14    8   31 1
  15    8   32 1
  16    9   20 1
  17    9   33 1
  18    9   34 1
  19   10   11 3
  20   12   13 1
  21   12   35 1
  22   12   36 1
  23   13   14 1
  24   13   18 1
  25   14   15 1
  26   14   37 1
  27   14   38 1
  28   15   16 1
  29   15   39 1
  30   15   40 1
  31   16   17 1
  32   16   19 am
  33   17   18 1
  34   17   41 1
  35   17   42 1
  36   18   43 1
  37   18   44 1
  38   19   23 2
  39   19   24 1
  40   20   21 1
  41   20   22 1
  42   20   45 1
  43   21   46 1
  44   21   47 1
  45   21   48 1
  46   22   49 1
  47   22   50 1
  48   22   51 1
  49   24   25 1
  50   25   26 1
  51   25   27 1
  52   25   28 1
  53   26   52 1
  54   26   53 1
  55   26   54 1
  56   27   55 1
  57   27   56 1
  58   27   57 1
  59   28   58 1
  60   28   59 1
  61   28   60 1

#	End of record

