#	Name: ASD05430429
#	Creating user name:	WinNT
#	Creation time:	15. 06. 2019 21:00

#	Modifying user name:	WinNT
#	Modification time:	15. 06. 2019 21:00

#	Program:	/corina/corina34_cracker 3.40 0067  02.08.2006

@<TRIPOS>MOLECULE
ASD05430429
  61   65    0    0    0
SMALL
NO_CHARGES


@<TRIPOS>ATOM
   1 C1            -0.3522    -0.4283     0.4496 C.ar    
   2 C2            -0.6330    -1.7939     0.4784 C.ar    
   3 C3            -1.9491    -2.2365     0.4451 C.ar    
   4 C4            -2.9835    -1.3284     0.3830 C.ar    
   5 C5            -2.7094     0.0428     0.3538 C.ar    
   6 C6            -1.3849     0.4885     0.3936 C.ar    
   7 C7            -5.0879     0.5839     0.2549 C.2     
   8 C8            -3.8132     1.0146     0.2875 C.2     
   9 O9             0.9373     0.0014     0.4822 O.3     
  10 C10            0.5261    -3.7685     1.4192 C.2     
  11 N11            0.4153    -2.7220     0.5406 N.pl3   
  12 C12            1.6796    -4.4003     1.1296 C.2     
  13 N13            2.2609    -3.7615     0.1035 N.2     
  14 C14            1.5134    -2.7545    -0.2583 C.2     
  15 C15            2.2235    -5.6149     1.8367 C.3     
  16 C16           -7.7768    -0.2604    -0.2713 C.3     
  17 N17           -7.5182     1.1086     0.1547 N.pl3   
  18 C18           -6.1887     1.5531     0.1888 C.2     
  19 C19           -8.5330     2.0859     0.5004 C.3     
  20 C20           -8.2387     3.3861    -0.2502 C.3     
  21 O21           -6.9296     3.8261     0.1301 O.3     
  22 N22           -5.9366     2.8267     0.1620 N.2     
  23 C23           -9.9700     1.6596     0.3827 C.3     
  24 C24          -10.1378     0.4327    -0.5116 C.3     
  25 C25           -9.2169    -0.6696     0.0342 C.3     
  26 C26           -8.3254     2.4006     1.9595 C.ar    
  27 C27           -8.7967     3.5899     2.4834 C.ar    
  28 C28           -7.6687     1.4971     2.7742 C.ar    
  29 C29           -7.4785     1.7842     4.1126 C.ar    
  30 C30           -7.9455     2.9773     4.6373 C.ar    
  31 C31           -8.6072     3.8793     3.8214 C.ar    
  32 F32           -7.7601     3.2590     5.9456 F       
  33 C33            1.1514     1.4139     0.4498 C.3     
  34 O34          -10.4715     1.3555     1.6858 O.3     
  35 H35           -2.1622    -3.2951     0.4676 H       
  36 H36           -4.0059    -1.6754     0.3565 H       
  37 H37           -1.1689     1.5465     0.3716 H       
  38 H38           -5.3010    -0.4746     0.2774 H       
  39 H39           -3.6002     2.0731     0.2650 H       
  40 H40           -0.1747    -4.0326     2.1972 H       
  41 H41            1.7316    -2.0628    -1.0585 H       
  42 H42            1.8555    -6.5161     1.3462 H       
  43 H43            3.3127    -5.5999     1.7991 H       
  44 H44            1.8956    -5.6074     2.8762 H       
  45 H45           -7.6025    -0.3399    -1.3443 H       
  46 H46           -7.0958    -0.9321     0.2513 H       
  47 H47           -8.2699     3.2068    -1.3249 H       
  48 H48           -8.9753     4.1429     0.0198 H       
  49 H49          -10.5501     2.4830    -0.0341 H       
  50 H50          -11.1739     0.0953    -0.4859 H       
  51 H51           -9.8536     0.6792    -1.5346 H       
  52 H52           -9.4440    -1.6169    -0.4547 H       
  53 H53           -9.3535    -0.7661     1.1112 H       
  54 H54           -9.3128     4.2933     1.8469 H       
  55 H55           -7.3046     0.5665     2.3646 H       
  56 H56           -6.9661     1.0779     4.7490 H       
  57 H57           -8.9716     4.8104     4.2296 H       
  58 H58            0.7290     1.8245    -0.4673 H       
  59 H59            0.6672     1.8747     1.3108 H       
  60 H60            2.2213     1.6200     0.4811 H       
  61 H61          -11.3958     1.0714     1.6952 H       
@<TRIPOS>BOND
   1    1    2 ar
   2    1    9 1
   3    1    6 ar
   4    2    3 ar
   5    2   11 1
   6    3    4 ar
   7    3   35 1
   8    4    5 ar
   9    4   36 1
  10    5    6 ar
  11    5    8 1
  12    6   37 1
  13    7    8 2
  14    7   18 1
  15    7   38 1
  16    8   39 1
  17    9   33 1
  18   10   11 1
  19   10   12 2
  20   10   40 1
  21   11   14 1
  22   12   13 1
  23   12   15 1
  24   13   14 2
  25   14   41 1
  26   15   42 1
  27   15   43 1
  28   15   44 1
  29   16   17 1
  30   16   25 1
  31   16   45 1
  32   16   46 1
  33   17   18 1
  34   17   19 1
  35   18   22 2
  36   19   20 1
  37   19   23 1
  38   19   26 1
  39   20   21 1
  40   20   47 1
  41   20   48 1
  42   21   22 1
  43   23   24 1
  44   23   34 1
  45   23   49 1
  46   24   25 1
  47   24   50 1
  48   24   51 1
  49   25   52 1
  50   25   53 1
  51   26   27 ar
  52   26   28 ar
  53   27   31 ar
  54   27   54 1
  55   28   29 ar
  56   28   55 1
  57   29   30 ar
  58   29   56 1
  59   30   31 ar
  60   30   32 1
  61   31   57 1
  62   33   58 1
  63   33   59 1
  64   33   60 1
  65   34   61 1

#	End of record

