#	Name: ASD01882498
#	Creating user name:	WinNT
#	Creation time:	15. 06. 2019 19:44

#	Modifying user name:	WinNT
#	Modification time:	15. 06. 2019 19:44

#	Program:	/corina/corina34_cracker 3.40 0067  02.08.2006

@<TRIPOS>MOLECULE
ASD01882498
  58   62    0    0    0
SMALL
NO_CHARGES


@<TRIPOS>ATOM
   1 C1            -2.0822     0.4593    -0.4210 C.2     
   2 C2            -1.4828    -0.8077    -0.2758 C.2     
   3 C3            -0.1263    -0.9101    -0.3231 C.2     
   4 C4             0.6536     0.2432    -0.5151 C.2     
   5 C5             0.0652     1.4498    -0.6522 C.2     
   6 N6            -1.2932     1.5676    -0.6074 N.pl3   
   7 N7            -3.3647     2.1523    -0.5963 N.2     
   8 N8            -3.3375     0.8770    -0.4265 N.2     
   9 C9            -2.1486     2.6203    -0.7124 C.2     
  10 C10            0.5367    -2.2548    -0.1696 C.3     
  11 N11            0.7987    -2.8259    -1.4975 N.3     
  12 C12            1.6516    -4.0185    -1.3988 C.3     
  13 C13            1.8350    -4.6278    -2.7908 C.3     
  14 N14            2.4344    -3.6278    -3.6853 N.3     
  15 C15            1.5814    -2.4351    -3.7840 C.3     
  16 C16            1.3980    -1.8258    -2.3920 C.3     
  17 C17            2.6840    -4.1720    -4.9505 C.ar    
  18 C18            3.4164    -3.4493    -5.8889 C.ar    
  19 C19            3.6606    -3.9933    -7.1407 C.ar    
  20 C20            3.1763    -5.2523    -7.4546 C.ar    
  21 C21            2.4491    -5.9687    -6.5226 C.ar    
  22 C22            2.2072    -5.4350    -5.2706 C.ar    
  23 F23            4.3703    -3.2953    -8.0541 F       
  24 O24            3.8908    -2.2123    -5.5784 O.3     
  25 C25            5.2131    -2.1406    -5.0415 C.3     
  26 C26            5.6057    -0.6747    -4.8470 C.3     
  27 C27           -1.7653     4.0621    -0.9251 C.3     
  28 C28           -1.6988     4.3562    -2.4251 C.3     
  29 C29           -1.4384     5.8026    -2.8505 C.3     
  30 C30           -0.3400     4.7493    -3.0084 C.3     
  31 Cl31          -2.4626    -2.2210    -0.0387 Cl      
  32 H32            1.7300     0.1633    -0.5529 H       
  33 H33            0.6746     2.3293    -0.7990 H       
  34 H34            1.4779    -2.1366     0.3672 H       
  35 H35           -0.1194    -2.9216     0.3897 H       
  36 H36            2.6238    -3.7378    -0.9938 H       
  37 H37            1.1806    -4.7491    -0.7412 H       
  38 H38            2.4910    -5.4958    -2.7243 H       
  39 H39            0.8657    -4.9335    -3.1846 H       
  40 H40            2.0525    -1.7045    -4.4416 H       
  41 H41            0.6092    -2.7159    -4.1890 H       
  42 H42            0.7421    -0.9578    -2.4585 H       
  43 H43            2.3674    -1.5202    -1.9983 H       
  44 H44            3.3671    -5.6752    -8.4298 H       
  45 H45            2.0727    -6.9499    -6.7717 H       
  46 H46            1.6430    -5.9994    -4.5429 H       
  47 H47            5.2438    -2.6555    -4.0813 H       
  48 H48            5.9114    -2.6153    -5.7308 H       
  49 H49            5.5750    -0.1598    -5.8072 H       
  50 H50            4.9074    -0.1999    -4.1577 H       
  51 H51            6.6144    -0.6199    -4.4374 H       
  52 H52           -2.5101     4.7084    -0.4608 H       
  53 H53           -0.7905     4.2492    -0.4746 H       
  54 H54           -2.3619     3.7591    -3.0510 H       
  55 H55           -1.9299     6.1570    -3.7566 H       
  56 H56           -1.3144     6.5447    -2.0618 H       
  57 H57            0.5065     4.7983    -2.3235 H       
  58 H58           -0.1089     4.4106    -4.0183 H       
@<TRIPOS>BOND
   1    1    2 1
   2    1    6 1
   3    1    8 2
   4    2    3 2
   5    2   31 1
   6    3    4 1
   7    3   10 1
   8    4    5 2
   9    4   32 1
  10    5    6 1
  11    5   33 1
  12    6    9 1
  13    7    8 1
  14    7    9 2
  15    9   27 1
  16   10   11 1
  17   10   34 1
  18   10   35 1
  19   11   12 1
  20   11   16 1
  21   12   13 1
  22   12   36 1
  23   12   37 1
  24   13   14 1
  25   13   38 1
  26   13   39 1
  27   14   15 1
  28   14   17 1
  29   15   16 1
  30   15   40 1
  31   15   41 1
  32   16   42 1
  33   16   43 1
  34   17   18 ar
  35   17   22 ar
  36   18   19 ar
  37   18   24 1
  38   19   20 ar
  39   19   23 1
  40   20   21 ar
  41   20   44 1
  42   21   22 ar
  43   21   45 1
  44   22   46 1
  45   24   25 1
  46   25   26 1
  47   25   47 1
  48   25   48 1
  49   26   49 1
  50   26   50 1
  51   26   51 1
  52   27   28 1
  53   27   52 1
  54   27   53 1
  55   28   29 1
  56   28   30 1
  57   28   54 1
  58   29   30 1
  59   29   55 1
  60   29   56 1
  61   30   57 1
  62   30   58 1

#	End of record

