#	Name: ASD03900023
#	Creating user name:	WinNT
#	Creation time:	15. 06. 2019 20:47

#	Modifying user name:	WinNT
#	Modification time:	15. 06. 2019 20:47

#	Program:	/corina/corina34_cracker 3.40 0067  02.08.2006

@<TRIPOS>MOLECULE
ASD03900023
  56   58    0    0    0
SMALL
NO_CHARGES


@<TRIPOS>ATOM
   1 C1             0.1455     1.4725     0.2672 C.ar    
   2 C2             0.0021    -0.0041     0.0020 C.3     
   3 C3            -1.4226    -0.4241     0.2566 C.ar    
   4 C4             0.3627    -0.2942    -1.4322 C.ar    
   5 C5             0.9368    -0.7821     0.9303 C.3     
   6 C6             0.4545    -1.6026    -1.8696 C.ar    
   7 C7             0.7849    -1.8712    -3.1837 C.ar    
   8 C8             1.0246    -0.8268    -4.0649 C.ar    
   9 C9             0.9318     0.4851    -3.6235 C.ar    
  10 C10            0.5955     0.7485    -2.3098 C.ar    
  11 C11           -2.4349     0.0346    -0.5659 C.ar    
  12 C12           -3.7417    -0.3490    -0.3346 C.ar    
  13 C13           -4.0380    -1.1952     0.7240 C.ar    
  14 C14           -3.0205    -1.6541     1.5479 C.ar    
  15 C15           -1.7145    -1.2721     1.3090 C.ar    
  16 O16            1.3502    -1.0885    -5.3581 O.3     
  17 C17            1.3680     2.0913     0.0823 C.ar    
  18 C18            1.5020     3.4447     0.3247 C.ar    
  19 C19            0.4087     4.1830     0.7540 C.ar    
  20 C20           -0.8168     3.5596     0.9388 C.ar    
  21 C21           -0.9471     2.2071     0.6896 C.ar    
  22 O22           -5.3228    -1.5737     0.9539 O.3     
  23 C23           -5.5537    -2.4465     2.0616 C.3     
  24 O24            0.5381     5.5144     0.9936 O.3     
  25 C25           -7.0255    -2.7552     2.1596 C.2     
  26 O26           -7.8045    -2.2725     1.3554 O.co2   
  27 O27           -7.4373    -3.4876     3.0430 O.co2   
  28 C28           -0.6295     6.2110     1.4333 C.3     
  29 C29           -0.2966     7.6652     1.6462 C.2     
  30 O30            0.8357     8.0678     1.4405 O.co2   
  31 O31           -1.1595     8.4392     2.0242 O.co2   
  32 C32            1.5833     0.0359    -6.2087 C.3     
  33 C33            1.9292    -0.4455    -7.5942 C.2     
  34 O34            1.9721    -1.6406    -7.8313 O.co2   
  35 O35            2.1661     0.3602    -8.4780 O.co2   
  36 H36            0.6760    -0.5722     1.9677 H       
  37 H37            0.8331    -1.8501     0.7385 H       
  38 H38            1.9673    -0.4783     0.7462 H       
  39 H39            0.2682    -2.4153    -1.1831 H       
  40 H40            0.8569    -2.8934    -3.5248 H       
  41 H41            1.1179     1.2999    -4.3076 H       
  42 H42            0.5231     1.7697    -1.9657 H       
  43 H43           -2.2038     0.6937    -1.3897 H       
  44 H44           -4.5321     0.0099    -0.9772 H       
  45 H45           -3.2485    -2.3130     2.3727 H       
  46 H46           -0.9221    -1.6291     1.9500 H       
  47 H47            2.2189     1.5161    -0.2516 H       
  48 H48            2.4572     3.9276     0.1804 H       
  49 H49           -1.6694     4.1322     1.2730 H       
  50 H50           -1.9009     1.7214     0.8333 H       
  51 H51           -4.9971    -3.3724     1.9168 H       
  52 H52           -5.2220    -1.9630     2.9804 H       
  53 H53           -1.4106     6.1239     0.6780 H       
  54 H54           -0.9800     5.7776     2.3700 H       
  55 H55            0.6847     0.6514    -6.2517 H       
  56 H56            2.4094     0.6263    -5.8123 H       
@<TRIPOS>BOND
   1    1    2 1
   2    1   17 ar
   3    1   21 ar
   4    2    3 1
   5    2    4 1
   6    2    5 1
   7    3   11 ar
   8    3   15 ar
   9    4    6 ar
  10    4   10 ar
  11    5   36 1
  12    5   37 1
  13    5   38 1
  14    6    7 ar
  15    6   39 1
  16    7    8 ar
  17    7   40 1
  18    8    9 ar
  19    8   16 1
  20    9   10 ar
  21    9   41 1
  22   10   42 1
  23   11   12 ar
  24   11   43 1
  25   12   13 ar
  26   12   44 1
  27   13   14 ar
  28   13   22 1
  29   14   15 ar
  30   14   45 1
  31   15   46 1
  32   16   32 1
  33   17   18 ar
  34   17   47 1
  35   18   19 ar
  36   18   48 1
  37   19   20 ar
  38   19   24 1
  39   20   21 ar
  40   20   49 1
  41   21   50 1
  42   22   23 1
  43   23   25 1
  44   23   51 1
  45   23   52 1
  46   24   28 1
  47   25   26 ar
  48   25   27 ar
  49   28   29 1
  50   28   53 1
  51   28   54 1
  52   29   30 ar
  53   29   31 ar
  54   32   33 1
  55   32   55 1
  56   32   56 1
  57   33   34 ar
  58   33   35 ar

#	End of record

