#	Name: ASD01881480
#	Creating user name:	WinNT
#	Creation time:	15. 06. 2019 19:42

#	Modifying user name:	WinNT
#	Modification time:	15. 06. 2019 19:42

#	Program:	/corina/corina34_cracker 3.40 0067  02.08.2006

@<TRIPOS>MOLECULE
ASD01881480
  51   53    0    0    0
SMALL
NO_CHARGES


@<TRIPOS>ATOM
   1 C1            -0.0037     1.3907     0.0200 C.2     
   2 C2             1.1932     2.1066    -0.1113 C.2     
   3 C3             1.1328     3.5088    -0.2568 C.2     
   4 C4            -0.0639     4.1347    -0.2674 C.2     
   5 N5            -1.2254     3.4397    -0.1400 N.am    
   6 C6            -1.2277     2.1006    -0.0042 C.2     
   7 C7            -3.0102     4.2617    -1.5961 C.3     
   8 C8            -2.4999     4.1618    -0.1571 C.3     
   9 O9            -2.2837     1.5003     0.1085 O.2     
  10 C10            2.4953     1.4061    -0.0972 C.ar    
  11 C11            3.3023     1.4057    -1.2373 C.ar    
  12 C12            2.9235     0.7485     1.0574 C.ar    
  13 C13            4.1378     0.0962     1.0678 C.ar    
  14 C14            4.9363     0.0924    -0.0682 C.ar    
  15 C15            4.5162     0.7510    -1.2200 C.ar    
  16 O16            6.1323    -0.5512    -0.0536 O.3     
  17 C17            7.2427     0.1728     0.2457 C.ar    
  18 C18            8.4811    -0.4459     0.3435 C.ar    
  19 C19           -4.3412     5.0159    -1.6140 C.3     
  20 C20           -4.8515     5.1158    -3.0530 C.3     
  21 C21            7.1553     1.5458     0.4527 C.ar    
  22 C22            8.3151     2.2413     0.7550 C.ar    
  23 C23            9.5112     1.5540     0.8403 C.ar    
  24 N24            9.5607     0.2525     0.6331 N.ar    
  25 C25           10.7770     2.3030     1.1686 C.3     
  26 C26            8.5925    -1.9316     0.1168 C.3     
  27 F27            5.2958     0.7451    -2.3234 F       
  28 N28            0.0100     0.0432     0.1619 N.1     
  29 C29            0.0215    -1.0864     0.2809 C.1     
  30 H30            2.0430     4.0812    -0.3593 H       
  31 H31           -0.0989     5.2083    -0.3790 H       
  32 H32           -2.2809     4.7973    -2.2038 H       
  33 H33           -3.1547     3.2599    -2.0007 H       
  34 H34           -3.2292     3.6263     0.4506 H       
  35 H35           -2.3554     5.1636     0.2475 H       
  36 H36            2.9761     1.9168    -2.1310 H       
  37 H37            2.3039     0.7511     1.9419 H       
  38 H38            4.4688    -0.4125     1.9612 H       
  39 H39           -5.0705     4.4803    -1.0062 H       
  40 H40           -4.1967     6.0177    -1.2094 H       
  41 H41           -4.9960     4.1140    -3.4575 H       
  42 H42           -5.7998     5.6531    -3.0657 H       
  43 H43           -4.1222     5.6513    -3.6607 H       
  44 H44            6.2068     2.0571     0.3792 H       
  45 H45            8.2848     3.3079     0.9216 H       
  46 H46           10.9180     2.3222     2.2493 H       
  47 H47           11.6259     1.8049     0.7002 H       
  48 H48           10.7028     3.3239     0.7937 H       
  49 H49            8.7809    -2.1248    -0.9392 H       
  50 H50            9.4151    -2.3291     0.7113 H       
  51 H51            7.6622    -2.4153     0.4144 H       
@<TRIPOS>BOND
   1    1   28 1
   2    1    2 2
   3    1    6 1
   4    2    3 1
   5    2   10 1
   6    3    4 2
   7    3   30 1
   8    4    5 1
   9    4   31 1
  10    5    6 am
  11    5    8 1
  12    6    9 2
  13    7    8 1
  14    7   19 1
  15    7   32 1
  16    7   33 1
  17    8   34 1
  18    8   35 1
  19   10   11 ar
  20   10   12 ar
  21   11   15 ar
  22   11   36 1
  23   12   13 ar
  24   12   37 1
  25   13   14 ar
  26   13   38 1
  27   14   15 ar
  28   14   16 1
  29   15   27 1
  30   16   17 1
  31   17   18 ar
  32   17   21 ar
  33   18   26 1
  34   18   24 ar
  35   19   20 1
  36   19   39 1
  37   19   40 1
  38   20   41 1
  39   20   42 1
  40   20   43 1
  41   21   22 ar
  42   21   44 1
  43   22   23 ar
  44   22   45 1
  45   23   24 ar
  46   23   25 1
  47   25   46 1
  48   25   47 1
  49   25   48 1
  50   26   49 1
  51   26   50 1
  52   26   51 1
  53   28   29 3

#	End of record

