#	Name: ASD03331346
#	Creating user name:	WinNT
#	Creation time:	15. 06. 2019 20:39

#	Modifying user name:	WinNT
#	Modification time:	15. 06. 2019 20:39

#	Program:	/corina/corina34_cracker 3.40 0067  02.08.2006

@<TRIPOS>MOLECULE
ASD03331346
  75   78    0    0    0
SMALL
NO_CHARGES


@<TRIPOS>ATOM
   1 N1             0.2069     0.5484     0.6536 N.am    
   2 C2             0.2311    -0.8319     0.1498 C.3     
   3 C3             0.8453    -0.8300    -1.2555 C.3     
   4 N4             2.1011    -0.0675    -1.2182 N.am    
   5 C5             2.0769     1.3129    -0.7144 C.3     
   6 C6             1.4627     1.3109     0.6910 C.3     
   7 C7            -0.9473     1.1070     1.0687 C.2     
   8 O8            -1.9803     0.4684     1.0284 O.2     
   9 O9            -0.9558     2.3725     1.5281 O.3     
  10 C10            3.2544    -0.6244    -1.6380 C.2     
  11 C11            4.5116     0.2041    -1.7021 C.3     
  12 C12            4.6142     0.8699    -3.0759 C.3     
  13 C13            3.3370     1.6652    -3.3538 C.3     
  14 O14            3.2805    -1.7922    -1.9641 O.2     
  15 C15            6.8222    -0.1373    -1.0079 C.2     
  16 O16            6.8891     1.0482    -0.7502 O.2     
  17 N17            5.6764    -0.6586    -1.4894 N.am    
  18 C18           11.3350    -1.5871     0.1838 C.3     
  19 C19            9.9043    -1.6290    -0.2909 C.2     
  20 C20            9.0999    -0.5398    -0.3367 C.2     
  21 C21            9.5481     0.8367     0.0885 C.3     
  22 C22           10.8360     0.6796     0.9091 C.3     
  23 N23           11.7802    -0.1831     0.1851 N.3     
  24 N24            7.9580    -2.3103    -1.0646 N.2     
  25 N25            7.8937    -0.9310    -0.8122 N.am    
  26 C26            9.1668    -2.7314    -0.7512 C.2     
  27 C27            9.6615    -4.1254    -0.8652 C.ar    
  28 C28            9.4252    -4.8590    -2.0287 C.ar    
  29 C29            9.8883    -6.1571    -2.1306 C.ar    
  30 C30           10.5854    -6.7301    -1.0803 C.ar    
  31 C31           10.8226    -6.0045     0.0783 C.ar    
  32 C32           10.3683    -4.7041     0.1868 C.ar    
  33 F33           11.5033    -6.5686     1.0999 F       
  34 F34           11.0356    -7.9997    -1.1838 F       
  35 F35            8.7444    -4.3011    -3.0537 F       
  36 C36           13.1355    -0.0611     0.7387 C.3     
  37 C37            5.8177     1.8143    -3.0963 C.3     
  38 C38            4.7903    -0.2041    -4.1512 C.3     
  39 C39           -2.2345     2.9092     1.9582 C.3     
  40 C40           -2.0466     4.3478     2.4439 C.3     
  41 H41            0.8348    -1.4525     0.8120 H       
  42 H42           -0.7854    -1.2226     0.1043 H       
  43 H43            1.0485    -1.8545    -1.5674 H       
  44 H44            0.1539    -0.3620    -1.9563 H       
  45 H45            3.0934     1.7035    -0.6688 H       
  46 H46            1.4732     1.9334    -1.3766 H       
  47 H47            1.2595     2.3354     1.0029 H       
  48 H48            2.1541     0.8429     1.3918 H       
  49 H49            4.4813     0.9710    -0.9281 H       
  50 H50            3.2469     2.4732    -2.6277 H       
  51 H51            3.3810     2.0835    -4.3593 H       
  52 H52            2.4732     1.0054    -3.2722 H       
  53 H53            5.6229    -1.6051    -1.6951 H       
  54 H54           11.3994    -1.9939     1.1930 H       
  55 H55           11.9628    -2.1711    -0.4892 H       
  56 H56            9.7437     1.4493    -0.7916 H       
  57 H57            8.7758     1.3037     0.6998 H       
  58 H58           11.2873     1.6591     1.0671 H       
  59 H59           10.5993     0.2298     1.8734 H       
  60 H60            9.7060    -6.7256    -3.0306 H       
  61 H61           10.5570    -4.1387     1.0874 H       
  62 H62           13.8286    -0.6470     0.1350 H       
  63 H63           13.4395     0.9856     0.7279 H       
  64 H64           13.1439    -0.4313     1.7638 H       
  65 H65            6.7276     1.2477    -2.8984 H       
  66 H66            5.8907     2.2886    -4.0750 H       
  67 H67            5.6922     2.5794    -2.3302 H       
  68 H68            3.9329    -0.8770    -4.1366 H       
  69 H69            4.8633     0.2702    -5.1299 H       
  70 H70            5.7002    -0.7707    -3.9532 H       
  71 H71           -2.9337     2.8964     1.1221 H       
  72 H72           -2.6293     2.2999     2.7712 H       
  73 H73           -1.6518     4.9571     1.6309 H       
  74 H74           -3.0065     4.7506     2.7668 H       
  75 H75           -1.3474     4.3605     3.2801 H       
@<TRIPOS>BOND
   1    1    2 1
   2    1    6 1
   3    1    7 am
   4    2    3 1
   5    2   41 1
   6    2   42 1
   7    3    4 1
   8    3   43 1
   9    3   44 1
  10    4    5 1
  11    4   10 am
  12    5    6 1
  13    5   45 1
  14    5   46 1
  15    6   47 1
  16    6   48 1
  17    7    8 2
  18    7    9 1
  19    9   39 1
  20   10   14 2
  21   10   11 1
  22   11   12 1
  23   11   17 1
  24   11   49 1
  25   12   13 1
  26   12   37 1
  27   12   38 1
  28   13   50 1
  29   13   51 1
  30   13   52 1
  31   15   16 2
  32   15   17 am
  33   15   25 am
  34   17   53 1
  35   18   19 1
  36   18   23 1
  37   18   54 1
  38   18   55 1
  39   19   20 2
  40   19   26 1
  41   20   21 1
  42   20   25 1
  43   21   22 1
  44   21   56 1
  45   21   57 1
  46   22   23 1
  47   22   58 1
  48   22   59 1
  49   23   36 1
  50   24   25 1
  51   24   26 2
  52   26   27 1
  53   27   28 ar
  54   27   32 ar
  55   28   29 ar
  56   28   35 1
  57   29   30 ar
  58   29   60 1
  59   30   31 ar
  60   30   34 1
  61   31   32 ar
  62   31   33 1
  63   32   61 1
  64   36   62 1
  65   36   63 1
  66   36   64 1
  67   37   65 1
  68   37   66 1
  69   37   67 1
  70   38   68 1
  71   38   69 1
  72   38   70 1
  73   39   40 1
  74   39   71 1
  75   39   72 1
  76   40   73 1
  77   40   74 1
  78   40   75 1

#	End of record

