#	Name: ASD02039193
#	Creating user name:	WinNT
#	Creation time:	15. 06. 2019 20:17

#	Modifying user name:	WinNT
#	Modification time:	15. 06. 2019 20:17

#	Program:	/corina/corina34_cracker 3.40 0067  02.08.2006

@<TRIPOS>MOLECULE
ASD02039193
  42   45    0    0    0
SMALL
NO_CHARGES


@<TRIPOS>ATOM
   1 N1             0.0020     1.2625     0.3693 N.2     
   2 C2             0.0063    -0.0135     0.0889 C.2     
   3 N3             1.2922    -0.3754    -0.1076 N.2     
   4 C4             1.9960     0.7160     0.0677 C.2     
   5 O5             1.1351     1.6954     0.3611 O.3     
   6 C6             3.4937     0.8428    -0.0404 C.3     
   7 N7            -1.1049    -0.8433     0.0085 N.pl3   
   8 C8            -2.3915    -0.3043     0.1293 C.ar    
   9 C9            -2.6368     1.0037    -0.2682 C.ar    
  10 C10           -3.9068     1.5346    -0.1490 C.ar    
  11 C11           -4.9370     0.7605     0.3679 C.ar    
  12 C12           -4.6919    -0.5450     0.7651 C.ar    
  13 C13           -3.4238    -1.0788     0.6411 C.ar    
  14 O14           -6.1872     1.2834     0.4852 O.3     
  15 Cl15          -4.2143     3.1695    -0.6450 Cl      
  16 C16           -7.1990     0.4308     1.0251 C.3     
  17 F17           -7.3388    -0.6994     0.2125 F       
  18 F18           -6.8346     0.0345     2.3163 F       
  19 C19            3.8675     1.1881    -1.4589 C.ar    
  20 C20            3.9578     2.5196    -1.8418 C.ar    
  21 C21            4.2984     2.8583    -3.1335 C.ar    
  22 C22            4.5548     1.8572    -4.0649 C.ar    
  23 C23            4.4622     0.5086    -3.6729 C.ar    
  24 C24            4.1199     0.1884    -2.3549 C.ar    
  25 N25            4.8970     2.1677    -5.3637 N.am    
  26 C26            5.1443     1.1999    -6.2638 C.2     
  27 C27            5.0648    -0.1671    -5.9221 C.2     
  28 C28            4.7339    -0.5376    -4.6604 C.2     
  29 O29            5.4443     1.5111    -7.4034 O.2     
  30 H30            3.8410     1.6300     0.6287 H       
  31 H31            3.9595    -0.1025     0.2382 H       
  32 H32           -0.9895    -1.7962    -0.1314 H       
  33 H33           -1.8352     1.6057    -0.6699 H       
  34 H34           -5.4936    -1.1462     1.1678 H       
  35 H35           -3.2334    -2.0958     0.9507 H       
  36 H36           -8.1456     0.9698     1.0639 H       
  37 H37            3.7588     3.2979    -1.1201 H       
  38 H38            4.3657     3.8970    -3.4216 H       
  39 H39            4.0475    -0.8449    -2.0491 H       
  40 H40            4.9600     3.0976    -5.6322 H       
  41 H41            5.2690    -0.9209    -6.6681 H       
  42 H42            4.6711    -1.5814    -4.3902 H       
@<TRIPOS>BOND
   1    1    2 2
   2    1    5 1
   3    2    3 1
   4    2    7 1
   5    3    4 2
   6    4    5 1
   7    4    6 1
   8    6   19 1
   9    6   30 1
  10    6   31 1
  11    7    8 1
  12    7   32 1
  13    8    9 ar
  14    8   13 ar
  15    9   10 ar
  16    9   33 1
  17   10   11 ar
  18   10   15 1
  19   11   12 ar
  20   11   14 1
  21   12   13 ar
  22   12   34 1
  23   13   35 1
  24   14   16 1
  25   16   17 1
  26   16   18 1
  27   16   36 1
  28   19   20 ar
  29   19   24 ar
  30   20   21 ar
  31   20   37 1
  32   21   22 ar
  33   21   38 1
  34   22   23 ar
  35   22   25 1
  36   23   24 ar
  37   23   28 1
  38   24   39 1
  39   25   26 am
  40   25   40 1
  41   26   27 1
  42   26   29 2
  43   27   28 2
  44   27   41 1
  45   28   42 1

#	End of record

