#	Name: ASD03430916
#	Creating user name:	WinNT
#	Creation time:	15. 06. 2019 20:41

#	Modifying user name:	WinNT
#	Modification time:	15. 06. 2019 20:41

#	Program:	/corina/corina34_cracker 3.40 0067  02.08.2006

@<TRIPOS>MOLECULE
ASD03430916
  61   66    0    0    0
SMALL
NO_CHARGES


@<TRIPOS>ATOM
   1 O1            -0.6842     0.9418     1.2952 O.3     
   2 C2            -0.5677    -0.4585     0.9794 C.3     
   3 C3             0.8189    -0.5396     0.3267 C.3     
   4 C4             1.5353     0.6572     0.8913 C.ar    
   5 C5             0.5599     1.4766     1.4533 C.ar    
   6 C6             0.9443     2.6644     2.0640 C.ar    
   7 C7             2.2821     3.0388     2.1073 C.ar    
   8 C8             3.2362     2.2035     1.5386 C.ar    
   9 C9             2.8640     1.0235     0.9330 C.ar    
  10 N10            1.7913    -2.4267    -0.5208 N.am    
  11 C11            1.5170    -1.8280     0.6552 C.2     
  12 C12            0.7382    -0.5017    -1.1705 C.ar    
  13 C13            0.2198     0.3995    -2.0729 C.ar    
  14 C14            0.3019     0.1461    -3.4311 C.ar    
  15 C15            0.9058    -1.0140    -3.8792 C.ar    
  16 C16            1.4260    -1.9210    -2.9790 C.ar    
  17 C17            1.3473    -1.6744    -1.6109 C.ar    
  18 O18            1.7823    -2.2474     1.7619 O.2     
  19 C19            4.5868     2.8576     1.7534 C.3     
  20 C20            4.2611     3.9159     2.8338 C.3     
  21 O21            2.8582     4.1559     2.6319 O.3     
  22 C22            2.4752    -3.7166    -0.6418 C.3     
  23 C23            1.4539    -4.8490    -0.5173 C.3     
  24 C24            2.1813    -6.1950    -0.5247 C.3     
  25 O25            0.5441    -4.7931    -1.6178 O.3     
  26 C26            1.1489    -5.0554    -2.8857 C.3     
  27 O27            1.3696    -6.4602    -3.0267 O.3     
  28 C28            0.1817    -7.2124    -3.2823 C.3     
  29 C29            0.5440    -8.6534    -3.5339 C.ar    
  30 C30            0.5047    -9.5671    -2.4974 C.ar    
  31 C31            0.8371   -10.8889    -2.7281 C.ar    
  32 C32            1.2084   -11.2970    -3.9956 C.ar    
  33 C33            1.2468   -10.3835    -5.0324 C.ar    
  34 C34            0.9103    -9.0626    -4.8025 C.ar    
  35 H35           -0.6050    -1.0638     1.8851 H       
  36 H36           -1.3441    -0.7626     0.2773 H       
  37 H37            0.1958     3.3032     2.5092 H       
  38 H38            3.6138     0.3845     0.4904 H       
  39 H39           -0.2518     1.3050    -1.7207 H       
  40 H40           -0.1051     0.8528    -4.1391 H       
  41 H41            0.9703    -1.2114    -4.9391 H       
  42 H42            1.8955    -2.8254    -3.3368 H       
  43 H43            5.3151     2.1355     2.1225 H       
  44 H44            4.9401     3.3317     0.8377 H       
  45 H45            4.4451     3.5181     3.8318 H       
  46 H46            4.8365     4.8267     2.6679 H       
  47 H47            2.9681    -3.7770    -1.6121 H       
  48 H48            3.2188    -3.8093     0.1498 H       
  49 H49            0.9020    -4.7395     0.4163 H       
  50 H50            1.4537    -7.0017    -0.4360 H       
  51 H51            2.7332    -6.3046    -1.4582 H       
  52 H52            2.8752    -6.2376     0.3148 H       
  53 H53            0.4891    -4.7095    -3.6815 H       
  54 H54            2.1016    -4.5297    -2.9495 H       
  55 H55           -0.4808    -7.1497    -2.4190 H       
  56 H56           -0.3238    -6.8065    -4.1585 H       
  57 H57            0.2146    -9.2482    -1.5071 H       
  58 H58            0.8070   -11.6026    -1.9181 H       
  59 H59            1.4687   -12.3296    -4.1757 H       
  60 H60            1.5372   -10.7023    -6.0225 H       
  61 H61            0.9403    -8.3489    -5.6125 H       
@<TRIPOS>BOND
   1    1    2 1
   2    1    5 1
   3    2    3 1
   4    2   35 1
   5    2   36 1
   6    3    4 1
   7    3   11 1
   8    3   12 1
   9    4    5 ar
  10    4    9 ar
  11    5    6 ar
  12    6    7 ar
  13    6   37 1
  14    7    8 ar
  15    7   21 1
  16    8    9 ar
  17    8   19 1
  18    9   38 1
  19   10   11 am
  20   10   17 1
  21   10   22 1
  22   11   18 2
  23   12   13 ar
  24   12   17 ar
  25   13   14 ar
  26   13   39 1
  27   14   15 ar
  28   14   40 1
  29   15   16 ar
  30   15   41 1
  31   16   17 ar
  32   16   42 1
  33   19   20 1
  34   19   43 1
  35   19   44 1
  36   20   21 1
  37   20   45 1
  38   20   46 1
  39   22   23 1
  40   22   47 1
  41   22   48 1
  42   23   24 1
  43   23   25 1
  44   23   49 1
  45   24   50 1
  46   24   51 1
  47   24   52 1
  48   25   26 1
  49   26   27 1
  50   26   53 1
  51   26   54 1
  52   27   28 1
  53   28   29 1
  54   28   55 1
  55   28   56 1
  56   29   30 ar
  57   29   34 ar
  58   30   31 ar
  59   30   57 1
  60   31   32 ar
  61   31   58 1
  62   32   33 ar
  63   32   59 1
  64   33   34 ar
  65   33   60 1
  66   34   61 1

#	End of record

