#	Name: ASD05790126
#	Creating user name:	WinNT
#	Creation time:	15. 06. 2019 21:03

#	Modifying user name:	WinNT
#	Modification time:	15. 06. 2019 21:03

#	Program:	/corina/corina34_cracker 3.40 0067  02.08.2006

@<TRIPOS>MOLECULE
ASD05790126
  90   96    0    0    0
SMALL
NO_CHARGES


@<TRIPOS>ATOM
   1 C1             1.0341    -1.1237    -1.9770 C.3     
   2 C2             1.1235    -2.5750    -2.4545 C.3     
   3 C3             1.8176    -2.6177    -3.8163 C.3     
   4 C4             3.2327    -2.0475    -3.6937 C.3     
   5 C5             3.1532    -0.5955    -3.1960 C.3     
   6 C6             2.4451    -0.5482    -1.8448 C.3     
   7 C7             3.9211    -2.1222    -5.0563 C.3     
   8 C8             3.2245    -1.2141    -6.0836 C.3     
   9 C9             3.2544     0.1983    -5.5317 C.3     
  10 C10            2.3896     0.1950    -4.2364 C.3     
  11 C11            2.5307     1.2645    -6.3514 C.3     
  12 C12            2.2790     2.3629    -5.3134 C.2     
  13 C13            2.1790     1.6815    -3.9598 C.3     
  14 N14           -0.2289    -3.1355    -2.5757 N.3     
  15 C15            3.4459     1.8798    -7.4127 C.3     
  16 C16            2.7329     3.0958    -8.0050 C.3     
  17 C17            2.4725     4.1705    -6.9630 C.3     
  18 C18            2.2351     3.6291    -5.5865 C.2     
  19 O19            3.6073     5.0765    -6.9259 O.3     
  20 C20            3.2956     6.0907    -7.8684 C.3     
  21 C21            1.8112     6.4192    -7.5361 C.3     
  22 C22            1.2388     5.0071    -7.3968 C.3     
  23 C23            4.0646     7.3911    -7.8324 C.3     
  24 C24            3.5463     8.2619    -8.9903 C.3     
  25 C25            2.0394     8.4888    -8.8898 C.3     
  26 N26            1.3252     7.2157    -8.6547 N.am    
  27 C27            0.2930     6.8183    -9.4248 C.2     
  28 O28           -0.5215     6.0289    -8.9889 O.2     
  29 O29            0.1644     7.2959   -10.6770 O.3     
  30 C30           -0.9714     6.8242   -11.4490 C.3     
  31 C31           -0.9504     7.4619   -12.8143 C.ar    
  32 C32           -0.2815     6.8451   -13.8549 C.ar    
  33 C33           -1.6049     8.6607   -13.0273 C.ar    
  34 C34           -1.5856     9.2456   -14.2797 C.ar    
  35 C35           -0.9116     8.6319   -15.3189 C.ar    
  36 C36           -0.2622     7.4300   -15.1073 C.ar    
  37 C37            4.5661    -0.0264    -3.0527 C.3     
  38 C38            1.9326     4.5976    -4.4722 C.3     
  39 C39            4.2590     9.6154    -8.9556 C.3     
  40 C40            0.6925     4.5102    -8.7369 C.3     
  41 H41            0.4679    -0.5368    -2.7003 H       
  42 H42            0.5347    -1.0892    -1.0087 H       
  43 H43            1.6971    -3.1598    -1.7354 H       
  44 H44            1.8713    -3.6495    -4.1636 H       
  45 H45            1.2485    -2.0244    -4.5320 H       
  46 H46            3.8006    -2.6431    -2.9789 H       
  47 H47            2.3842     0.4853    -1.5039 H       
  48 H48            3.0090    -1.1349    -1.1197 H       
  49 H49            4.9597    -1.8090    -4.9492 H       
  50 H50            3.8947    -3.1515    -5.4137 H       
  51 H51            3.7574    -1.2523    -7.0337 H       
  52 H52            2.1925    -1.5359    -6.2231 H       
  53 H53            4.2783     0.4986    -5.3089 H       
  54 H54            1.4309    -0.2846    -4.4338 H       
  55 H55            1.6004     0.8852    -6.7741 H       
  56 H56            1.1934     1.8484    -3.5253 H       
  57 H57            2.9549     2.0545    -3.2914 H       
  58 H58           -0.7092    -3.1160    -1.6886 H       
  59 H59           -0.7589    -2.6511    -3.2846 H       
  60 H60            4.3847     2.1905    -6.9542 H       
  61 H61            3.6426     1.1496    -8.1977 H       
  62 H62            3.3496     3.5154    -8.7998 H       
  63 H63            1.7810     2.7761    -8.4293 H       
  64 H64            3.3535     5.6762    -8.8749 H       
  65 H65            1.7311     6.9656    -6.5964 H       
  66 H66            0.4649     4.9789    -6.6297 H       
  67 H67            3.8930     7.8971    -6.8824 H       
  68 H68            5.1290     7.1961    -7.9628 H       
  69 H69            3.7697     7.7673    -9.9356 H       
  70 H70            1.8346     9.1715    -8.0651 H       
  71 H71            1.6818     8.9335    -9.8185 H       
  72 H72           -0.9151     5.7407   -11.5531 H       
  73 H73           -1.8954     7.0925   -10.9368 H       
  74 H74            0.2264     5.9064   -13.6895 H       
  75 H75           -2.1315     9.1402   -12.2154 H       
  76 H76           -2.0975    10.1818   -14.4463 H       
  77 H77           -0.8968     9.0887   -16.2974 H       
  78 H78            0.2644     6.9505   -15.9192 H       
  79 H79            5.1106    -0.1661    -3.9866 H       
  80 H80            4.5077     1.0373    -2.8218 H       
  81 H81            5.0867    -0.5449    -2.2475 H       
  82 H82            0.8556     4.7523    -4.4077 H       
  83 H83            2.2985     4.1921    -3.5290 H       
  84 H84            2.4249     5.5489    -4.6741 H       
  85 H85            5.3330     9.4633    -9.0631 H       
  86 H86            3.8966    10.2379    -9.7737 H       
  87 H87            4.0552    10.1091    -8.0055 H       
  88 H88            0.9686     5.2115    -9.5243 H       
  89 H89            1.1132     3.5297    -8.9597 H       
  90 H90           -0.3935     4.4356    -8.6813 H       
@<TRIPOS>BOND
   1    1    2 1
   2    1    6 1
   3    1   41 1
   4    1   42 1
   5    2    3 1
   6    2   14 1
   7    2   43 1
   8    3    4 1
   9    3   44 1
  10    3   45 1
  11    4    5 1
  12    4    7 1
  13    4   46 1
  14    5    6 1
  15    5   37 1
  16    5   10 1
  17    6   47 1
  18    6   48 1
  19    7    8 1
  20    7   49 1
  21    7   50 1
  22    8    9 1
  23    8   51 1
  24    8   52 1
  25    9   10 1
  26    9   11 1
  27    9   53 1
  28   10   13 1
  29   10   54 1
  30   11   12 1
  31   11   15 1
  32   11   55 1
  33   12   13 1
  34   12   18 2
  35   13   56 1
  36   13   57 1
  37   14   58 1
  38   14   59 1
  39   15   16 1
  40   15   60 1
  41   15   61 1
  42   16   17 1
  43   16   62 1
  44   16   63 1
  45   17   18 1
  46   17   19 1
  47   17   22 1
  48   18   38 1
  49   19   20 1
  50   20   21 1
  51   20   23 1
  52   20   64 1
  53   21   22 1
  54   21   26 1
  55   21   65 1
  56   22   40 1
  57   22   66 1
  58   23   24 1
  59   23   67 1
  60   23   68 1
  61   24   25 1
  62   24   39 1
  63   24   69 1
  64   25   26 1
  65   25   70 1
  66   25   71 1
  67   26   27 am
  68   27   28 2
  69   27   29 1
  70   29   30 1
  71   30   31 1
  72   30   72 1
  73   30   73 1
  74   31   32 ar
  75   31   33 ar
  76   32   36 ar
  77   32   74 1
  78   33   34 ar
  79   33   75 1
  80   34   35 ar
  81   34   76 1
  82   35   36 ar
  83   35   77 1
  84   36   78 1
  85   37   79 1
  86   37   80 1
  87   37   81 1
  88   38   82 1
  89   38   83 1
  90   38   84 1
  91   39   85 1
  92   39   86 1
  93   39   87 1
  94   40   88 1
  95   40   89 1
  96   40   90 1

#	End of record

