#	Name: ASD01001267
#	Creating user name:	WinNT
#	Creation time:	15. 06. 2019 18:55

#	Modifying user name:	WinNT
#	Modification time:	15. 06. 2019 18:55

#	Program:	/corina/corina34_cracker 3.40 0067  02.08.2006

@<TRIPOS>MOLECULE
ASD01001267
  72   74    0    0    0
SMALL
NO_CHARGES


@<TRIPOS>ATOM
   1 C1            -0.4875     0.6721     1.2641 C.2     
   2 C2            -0.3227    -0.6132     0.8559 C.2     
   3 N3             0.9922    -0.8049     0.6256 N.2     
   4 C4             1.6364     0.3010     0.8736 C.2     
   5 N5             0.7546     1.2436     1.2729 N.pl3   
   6 C6             1.0712     2.6244     1.6461 C.3     
   7 C7             1.0301     3.4984     0.4191 C.ar    
   8 C8            -0.1572     4.0914     0.0323 C.ar    
   9 C9            -0.1949     4.8931    -1.0932 C.ar    
  10 C10            0.9549     5.1022    -1.8316 C.ar    
  11 C11            2.1424     4.5100    -1.4443 C.ar    
  12 C12            2.1810     3.7118    -0.3163 C.ar    
  13 C13           -1.3962    -1.6243     0.6932 C.ar    
  14 C14           -1.1192    -2.8475     0.0818 C.ar    
  15 C15           -2.1233    -3.7860    -0.0672 C.ar    
  16 C16           -3.4002    -3.5142     0.3879 C.ar    
  17 C17           -3.6811    -2.3011     0.9954 C.ar    
  18 C18           -2.6832    -1.3581     1.1556 C.ar    
  19 F19            0.1279    -3.1141    -0.3642 F       
  20 F20           -4.9311    -2.0417     1.4375 F       
  21 C21            3.1245     0.4962     0.7377 C.3     
  22 C22            3.7962     0.2545     2.0909 C.3     
  23 C23            3.4160    -1.1342     2.6083 C.3     
  24 C24            5.3152     0.3401     1.9288 C.3     
  25 C25            3.3293     1.3160     3.0890 C.3     
  26 N26            3.6535    -0.4515    -0.2463 N.am    
  27 C27            4.2278     0.0024    -1.3779 C.2     
  28 C28            4.2030     1.4749    -1.6973 C.3     
  29 C29            5.1111     2.2241    -0.7201 C.3     
  30 C30            2.7206    -2.5438    -1.1025 C.3     
  31 C31            3.5582    -1.8925    -0.0002 C.3     
  32 O32            4.7646    -0.7743    -2.1392 O.2     
  33 O33            4.6680     1.6806    -3.0328 O.3     
  34 C34            2.8677    -4.0647    -1.0236 C.3     
  35 C35            2.0948    -4.7123    -2.1743 C.3     
  36 N36            2.3306    -4.5428     0.2574 N.3     
  37 F37            2.2294    -6.1029    -2.1021 F       
  38 H38           -1.4194     1.1509     1.5263 H       
  39 H39            0.3399     2.9815     2.3712 H       
  40 H40            2.0677     2.6625     2.0862 H       
  41 H41           -1.0555     3.9280     0.6092 H       
  42 H42           -1.1226     5.3557    -1.3958 H       
  43 H43            0.9253     5.7280    -2.7113 H       
  44 H44            3.0406     4.6731    -2.0214 H       
  45 H45            3.1087     3.2491    -0.0137 H       
  46 H46           -1.9099    -4.7331    -0.5404 H       
  47 H47           -4.1817    -4.2501     0.2691 H       
  48 H48           -2.9031    -0.4129     1.6296 H       
  49 H49            3.3286     1.5147     0.4075 H       
  50 H50            3.9141    -1.8949     2.0071 H       
  51 H51            3.7267    -1.2321     3.6484 H       
  52 H52            2.3361    -1.2651     2.5378 H       
  53 H53            5.5966     1.3623     1.6759 H       
  54 H54            5.7971     0.0510     2.8628 H       
  55 H55            5.6340    -0.3322     1.1322 H       
  56 H56            2.2471     1.2551     3.2045 H       
  57 H57            3.8078     1.1438     4.0530 H       
  58 H58            3.6002     2.3054     2.7204 H       
  59 H59            3.1834     1.8494    -1.6059 H       
  60 H60            6.1071     1.7817    -0.7376 H       
  61 H61            5.1738     3.2722    -1.0130 H       
  62 H62            4.6993     2.1523     0.2865 H       
  63 H63            1.6730    -2.2729    -0.9709 H       
  64 H64            3.0665    -2.1953    -2.0756 H       
  65 H65            4.5576    -2.3276     0.0018 H       
  66 H66            3.0847    -2.0656     0.9662 H       
  67 H67            5.5708     1.3703    -3.1871 H       
  68 H68            3.9218    -4.3321    -1.0980 H       
  69 H69            1.0408    -4.4449    -2.0999 H       
  70 H70            2.4934    -4.3575    -3.1248 H       
  71 H71            1.3382    -4.3712     0.3199 H       
  72 H72            2.5377    -5.5208     0.3939 H       
@<TRIPOS>BOND
   1    1    2 2
   2    1    5 1
   3    1   38 1
   4    2    3 1
   5    2   13 1
   6    3    4 2
   7    4    5 1
   8    4   21 1
   9    5    6 1
  10    6    7 1
  11    6   39 1
  12    6   40 1
  13    7    8 ar
  14    7   12 ar
  15    8    9 ar
  16    8   41 1
  17    9   10 ar
  18    9   42 1
  19   10   11 ar
  20   10   43 1
  21   11   12 ar
  22   11   44 1
  23   12   45 1
  24   13   14 ar
  25   13   18 ar
  26   14   15 ar
  27   14   19 1
  28   15   16 ar
  29   15   46 1
  30   16   17 ar
  31   16   47 1
  32   17   18 ar
  33   17   20 1
  34   18   48 1
  35   21   22 1
  36   21   26 1
  37   21   49 1
  38   22   23 1
  39   22   24 1
  40   22   25 1
  41   23   50 1
  42   23   51 1
  43   23   52 1
  44   24   53 1
  45   24   54 1
  46   24   55 1
  47   25   56 1
  48   25   57 1
  49   25   58 1
  50   26   27 am
  51   26   31 1
  52   27   32 2
  53   27   28 1
  54   28   29 1
  55   28   33 1
  56   28   59 1
  57   29   60 1
  58   29   61 1
  59   29   62 1
  60   30   31 1
  61   30   34 1
  62   30   63 1
  63   30   64 1
  64   31   65 1
  65   31   66 1
  66   33   67 1
  67   34   35 1
  68   34   36 1
  69   34   68 1
  70   35   37 1
  71   35   69 1
  72   35   70 1
  73   36   71 1
  74   36   72 1

#	End of record

