#	Name: ASD01880320
#	Creating user name:	WinNT
#	Creation time:	15. 06. 2019 19:40

#	Modifying user name:	WinNT
#	Modification time:	15. 06. 2019 19:40

#	Program:	/corina/corina34_cracker 3.40 0067  02.08.2006

@<TRIPOS>MOLECULE
ASD01880320
  31   33    0    0    0
SMALL
NO_CHARGES


@<TRIPOS>ATOM
   1 C1            -0.0192     1.3175    -0.0167 C.ar    
   2 N2             0.0000    -0.0030    -0.0110 N.ar    
   3 C3            -1.1232    -0.7056    -0.0048 C.ar    
   4 C4            -2.3634    -0.0171    -0.0045 C.ar    
   5 C5            -2.3269     1.3802    -0.0108 C.ar    
   6 N6            -1.1404     2.0007    -0.0113 N.ar    
   7 C7            -3.7222    -0.5250     0.0014 C.2     
   8 C8            -4.6599     0.4025    -0.0002 C.2     
   9 S9            -3.9664     2.0131    -0.0091 S.3     
  10 C10            1.2893     2.0650    -0.0236 C.3     
  11 C11           -6.1391     0.1148     0.0051 C.3     
  12 N12           -1.0872    -2.0893     0.0007 N.pl3   
  13 C13            0.1347    -2.7571    -0.1205 C.ar    
  14 C14            0.3415    -3.9572     0.5480 C.ar    
  15 C15            1.5498    -4.6146     0.4257 C.ar    
  16 C16            2.5535    -4.0793    -0.3608 C.ar    
  17 C17            2.3510    -2.8849    -1.0276 C.ar    
  18 C18            1.1430    -2.2252    -0.9142 C.ar    
  19 H19           -3.9485    -1.5810     0.0062 H       
  20 H20            1.6020     2.2407    -1.0529 H       
  21 H21            1.1647     3.0203     0.4863 H       
  22 H22            2.0477     1.4748     0.4908 H       
  23 H23           -6.4930     0.0499     1.0340 H       
  24 H24           -6.6671     0.9167    -0.5109 H       
  25 H25           -6.3272    -0.8305    -0.5041 H       
  26 H26           -1.9099    -2.5956     0.0888 H       
  27 H27           -0.4417    -4.3754     1.1629 H       
  28 H28            1.7113    -5.5476     0.9451 H       
  29 H29            3.4978    -4.5951    -0.4542 H       
  30 H30            3.1370    -2.4694    -1.6407 H       
  31 H31            0.9855    -1.2924    -1.4352 H       
@<TRIPOS>BOND
   1    1    2 ar
   2    1   10 1
   3    1    6 ar
   4    2    3 ar
   5    3    4 ar
   6    3   12 1
   7    4    5 ar
   8    4    7 1
   9    5    6 ar
  10    5    9 1
  11    7    8 2
  12    7   19 1
  13    8    9 1
  14    8   11 1
  15   10   20 1
  16   10   21 1
  17   10   22 1
  18   11   23 1
  19   11   24 1
  20   11   25 1
  21   12   13 1
  22   12   26 1
  23   13   14 ar
  24   13   18 ar
  25   14   15 ar
  26   14   27 1
  27   15   16 ar
  28   15   28 1
  29   16   17 ar
  30   16   29 1
  31   17   18 ar
  32   17   30 1
  33   18   31 1

#	End of record

