#	Name: ASD01670045
#	Creating user name:	WinNT
#	Creation time:	15. 06. 2019 19:22

#	Modifying user name:	WinNT
#	Modification time:	15. 06. 2019 19:22

#	Program:	/corina/corina34_cracker 3.40 0067  02.08.2006

@<TRIPOS>MOLECULE
ASD01670045
  65   68    0    0    0
SMALL
NO_CHARGES


@<TRIPOS>ATOM
   1 C1            -0.0166     1.3730     0.0096 C.ar    
   2 C2             0.0021    -0.0041     0.0020 C.ar    
   3 C3             1.2067    -0.6873    -0.0140 C.ar    
   4 C4             2.4067     0.0059    -0.0234 C.ar    
   5 C5             2.4041     1.3958    -0.0137 C.ar    
   6 C6             1.1853     2.0874     0.0020 C.ar    
   7 C7             1.1706     3.5614     0.0104 C.2     
   8 O8             1.1747     4.1630     1.0660 O.2     
   9 O9             1.1525     4.2417    -1.1527 O.3     
  10 O10            3.5684     2.0949    -0.0154 O.3     
  11 C11            4.7461     1.3830    -0.4109 C.3     
  12 C12            4.7596     0.0336     0.3201 C.3     
  13 O13            3.5782    -0.6871    -0.0470 O.3     
  14 C14            5.9990    -0.7636    -0.0914 C.3     
  15 C15            6.0734    -2.0514     0.7313 C.3     
  16 C16            7.2942    -2.8366     0.3261 C.2     
  17 O17            8.0293    -2.4100    -0.5327 O.2     
  18 O18            7.5648    -4.0100     0.9191 O.3     
  19 C19           -1.3314     2.1093     0.0198 C.3     
  20 N20           -1.6476     2.5658    -1.3402 N.3     
  21 C21           -2.9257     3.2895    -1.3688 C.3     
  22 C22           -3.2158     3.7412    -2.7770 C.ar    
  23 C23           -2.9594     5.0437    -3.1517 C.ar    
  24 C24           -3.2252     5.4601    -4.4443 C.ar    
  25 C25           -3.7493     4.5744    -5.3688 C.ar    
  26 C26           -4.0108     3.2689    -5.0068 C.ar    
  27 C27           -3.7392     2.8409    -3.7066 C.ar    
  28 C28           -4.0108     1.4417    -3.3135 C.2     
  29 O29           -3.7783     1.0731    -2.1788 O.2     
  30 N30           -4.5162     0.5750    -4.2134 N.am    
  31 C31           -4.7853    -0.8114    -3.8240 C.3     
  32 C32           -5.3421    -1.5656    -5.0039 C.ar    
  33 C33           -4.4876    -2.2189    -5.8723 C.ar    
  34 C34           -4.9984    -2.9106    -6.9547 C.ar    
  35 C35           -6.3636    -2.9495    -7.1683 C.ar    
  36 C36           -7.2180    -2.2971    -6.2994 C.ar    
  37 C37           -6.7076    -1.6089    -5.2146 C.ar    
  38 H38           -0.9274    -0.5540     0.0090 H       
  39 H39            1.2110    -1.7673    -0.0189 H       
  40 H40            1.1433     5.2070    -1.0966 H       
  41 H41            4.7312     1.2175    -1.4881 H       
  42 H42            5.6316     1.9574    -0.1388 H       
  43 H43            4.7694     0.1992     1.3974 H       
  44 H44            5.9359    -1.0124    -1.1507 H       
  45 H45            6.8922    -0.1653     0.0887 H       
  46 H46            6.1365    -1.8027     1.7907 H       
  47 H47            5.1802    -2.6497     0.5512 H       
  48 H48            8.3590    -4.4773     0.6258 H       
  49 H49           -2.1186     1.4424     0.3714 H       
  50 H50           -1.2607     2.9701     0.6847 H       
  51 H51           -0.9020     3.1340    -1.7134 H       
  52 H52           -3.7239     2.6307    -1.0269 H       
  53 H53           -2.8660     4.1584    -0.7135 H       
  54 H54           -2.5506     5.7401    -2.4346 H       
  55 H55           -3.0230     6.4811    -4.7326 H       
  56 H56           -3.9545     4.9057    -6.3761 H       
  57 H57           -4.4206     2.5787    -5.7293 H       
  58 H58           -4.7017     0.8691    -5.1189 H       
  59 H59           -3.8590    -1.2829    -3.4956 H       
  60 H60           -5.5090    -0.8260    -3.0091 H       
  61 H61           -3.4211    -2.1885    -5.7054 H       
  62 H62           -4.3308    -3.4204    -7.6335 H       
  63 H63           -6.7625    -3.4894    -8.0144 H       
  64 H64           -8.2846    -2.3272    -6.4665 H       
  65 H65           -7.3754    -1.1023    -4.5336 H       
@<TRIPOS>BOND
   1    1    2 ar
   2    1    6 ar
   3    1   19 1
   4    2    3 ar
   5    2   38 1
   6    3    4 ar
   7    3   39 1
   8    4    5 ar
   9    4   13 1
  10    5    6 ar
  11    5   10 1
  12    6    7 1
  13    7    8 2
  14    7    9 1
  15    9   40 1
  16   10   11 1
  17   11   12 1
  18   11   41 1
  19   11   42 1
  20   12   13 1
  21   12   14 1
  22   12   43 1
  23   14   15 1
  24   14   44 1
  25   14   45 1
  26   15   16 1
  27   15   46 1
  28   15   47 1
  29   16   17 2
  30   16   18 1
  31   18   48 1
  32   19   20 1
  33   19   49 1
  34   19   50 1
  35   20   21 1
  36   20   51 1
  37   21   22 1
  38   21   52 1
  39   21   53 1
  40   22   23 ar
  41   22   27 ar
  42   23   24 ar
  43   23   54 1
  44   24   25 ar
  45   24   55 1
  46   25   26 ar
  47   25   56 1
  48   26   27 ar
  49   26   57 1
  50   27   28 1
  51   28   29 2
  52   28   30 am
  53   30   31 1
  54   30   58 1
  55   31   32 1
  56   31   59 1
  57   31   60 1
  58   32   33 ar
  59   32   37 ar
  60   33   34 ar
  61   33   61 1
  62   34   35 ar
  63   34   62 1
  64   35   36 ar
  65   35   63 1
  66   36   37 ar
  67   36   64 1
  68   37   65 1

#	End of record

