#	Name: ASD02198310
#	Creating user name:	WinNT
#	Creation time:	15. 06. 2019 20:19

#	Modifying user name:	WinNT
#	Modification time:	15. 06. 2019 20:19

#	Program:	/corina/corina34_cracker 3.40 0067  02.08.2006

@<TRIPOS>MOLECULE
ASD02198310
  38   40    0    0    0
SMALL
NO_CHARGES


@<TRIPOS>ATOM
   1 C1             0.4514     1.7110     0.0454 C.2     
   2 C2             0.5421     0.3369     0.1651 C.2     
   3 S3             2.0715     2.3738     0.2448 S.3     
   4 C4             2.7055     0.8024     0.4638 C.2     
   5 N5             1.7626    -0.0921     0.3868 N.2     
   6 N6            -0.5520    -0.5076     0.0614 N.pl3   
   7 C7            -0.7236     2.4480    -0.1983 C.2     
   8 C8            -0.6903     3.9255    -0.1622 C.ar    
   9 O9            -1.7687     1.8674    -0.4391 O.2     
  10 N10            4.0344     0.5201     0.6913 N.pl3   
  11 C11            4.4383    -0.7967     0.9303 C.ar    
  12 C12            3.7765    -1.8506     0.3131 C.ar    
  13 C13           -1.5961     4.6651    -0.9257 C.ar    
  14 C14            0.2434     4.5853     0.6401 C.ar    
  15 C15            0.2711     5.9621     0.6716 C.ar    
  16 C16           -0.6284     6.6946    -0.0937 C.ar    
  17 C17           -1.5623     6.0416    -0.8891 C.ar    
  18 C18            4.1780    -3.1503     0.5514 C.ar    
  19 C19            5.2373    -3.4032     1.4036 C.ar    
  20 C20            5.8983    -2.3563     2.0197 C.ar    
  21 C21            5.5059    -1.0538     1.7809 C.ar    
  22 O22           -0.5981     8.0513    -0.0601 O.3     
  23 C23           -1.5507     8.7418    -0.8711 C.3     
  24 H24           -1.4345    -0.1401    -0.1030 H       
  25 H25           -0.4351    -1.4662     0.1532 H       
  26 H26            4.6900     1.2350     0.6858 H       
  27 H27            2.9486    -1.6539    -0.3520 H       
  28 H28           -2.3220     4.1584    -1.5444 H       
  29 H29            0.9425     4.0167     1.2354 H       
  30 H30            0.9926     6.4729     1.2920 H       
  31 H31           -2.2597     6.6143    -1.4825 H       
  32 H32            3.6639    -3.9702     0.0719 H       
  33 H33            5.5488    -4.4205     1.5888 H       
  34 H34            6.7252    -2.5572     2.6847 H       
  35 H35            6.0228    -0.2367     2.2620 H       
  36 H36           -1.4019     8.4713    -1.9164 H       
  37 H37           -2.5589     8.4637    -0.5638 H       
  38 H38           -1.4181     9.8171    -0.7516 H       
@<TRIPOS>BOND
   1    1    2 2
   2    1    3 1
   3    1    7 1
   4    2    6 1
   5    2    5 1
   6    3    4 1
   7    4    5 2
   8    4   10 1
   9    6   24 1
  10    6   25 1
  11    7    8 1
  12    7    9 2
  13    8   13 ar
  14    8   14 ar
  15   10   11 1
  16   10   26 1
  17   11   12 ar
  18   11   21 ar
  19   12   18 ar
  20   12   27 1
  21   13   17 ar
  22   13   28 1
  23   14   15 ar
  24   14   29 1
  25   15   16 ar
  26   15   30 1
  27   16   17 ar
  28   16   22 1
  29   17   31 1
  30   18   19 ar
  31   18   32 1
  32   19   20 ar
  33   19   33 1
  34   20   21 ar
  35   20   34 1
  36   21   35 1
  37   22   23 1
  38   23   36 1
  39   23   37 1
  40   23   38 1

#	End of record

