#	Name: ASD02560461
#	Creating user name:	WinNT
#	Creation time:	15. 06. 2019 20:25

#	Modifying user name:	WinNT
#	Modification time:	15. 06. 2019 20:25

#	Program:	/corina/corina34_cracker 3.40 0067  02.08.2006

@<TRIPOS>MOLECULE
ASD02560461
  52   55    0    0    0
SMALL
NO_CHARGES


@<TRIPOS>ATOM
   1 C1             0.2552    -3.3560    -3.4960 C.2     
   2 C2             0.9707    -4.1651    -2.5954 C.2     
   3 C3             1.9302    -3.6308    -1.8135 C.2     
   4 N4             2.2220    -2.2957    -1.8840 N.pl3   
   5 C5             1.5388    -1.4797    -2.7561 C.2     
   6 C6             0.5333    -2.0277    -3.5787 C.2     
   7 C7             3.1252    -1.5085    -1.2232 C.2     
   8 C8             2.9770    -0.2462    -1.6986 C.2     
   9 N9             2.0121    -0.2505    -2.6253 N.2     
  10 C10            3.7668     0.9587    -1.2565 C.3     
  11 N11            4.0315    -1.9265    -0.2410 N.3     
  12 C12            5.4090    -1.9017    -0.7509 C.3     
  13 C13            4.6678     1.4261    -2.4013 C.3     
  14 C14            6.3883    -1.9256     0.4244 C.3     
  15 C15            2.8057     2.0852    -0.8714 C.3     
  16 C16            3.6075     3.3085    -0.4225 C.3     
  17 C17            4.5085     3.7759    -1.5673 C.3     
  18 C18            5.4696     2.6494    -1.9524 C.3     
  19 C19            5.6467    -3.1255    -1.6378 C.3     
  20 C20            7.0813    -3.0996    -2.1689 C.3     
  21 C21            8.0607    -3.1236    -0.9936 C.3     
  22 C22            7.8230    -1.8997    -0.1067 C.3     
  23 C23            2.6875    -4.5113    -0.8531 C.3     
  24 H24           -0.5098    -3.7892    -4.1233 H       
  25 H25            0.7501    -5.2203    -2.5295 H       
  26 H26           -0.0104    -1.3986    -4.2678 H       
  27 H27            4.3808     0.6947    -0.3954 H       
  28 H28            3.9446    -1.3659     0.5933 H       
  29 H29            5.5640    -0.9943    -1.3346 H       
  30 H30            5.3525     0.6236    -2.6756 H       
  31 H31            4.0538     1.6901    -3.2623 H       
  32 H32            6.2190    -1.0538     1.0563 H       
  33 H33            6.2333    -2.8330     1.0081 H       
  34 H34            2.1917     2.3492    -1.7324 H       
  35 H35            2.1638     1.7522    -0.0558 H       
  36 H36            2.9228     4.1110    -0.1481 H       
  37 H37            4.2215     3.0445     0.4386 H       
  38 H38            3.8945     4.0399    -2.4283 H       
  39 H39            5.0797     4.6474    -1.2475 H       
  40 H40            6.0836     2.3855    -1.0913 H       
  41 H41            6.1115     2.9824    -2.7680 H       
  42 H42            5.4916    -4.0329    -1.0541 H       
  43 H43            4.9490    -3.1084    -2.4751 H       
  44 H44            7.2507    -3.9715    -2.8008 H       
  45 H45            7.2364    -2.1922    -2.7526 H       
  46 H46            7.9056    -4.0309    -0.4099 H       
  47 H47            9.0827    -3.1051    -1.3720 H       
  48 H48            7.9780    -0.9924    -0.6904 H       
  49 H49            8.5207    -1.9168     0.7306 H       
  50 H50            2.2610    -5.5143    -0.8662 H       
  51 H51            3.7348    -4.5580    -1.1516 H       
  52 H52            2.6145    -4.0985     0.1531 H       
@<TRIPOS>BOND
   1    1    2 1
   2    1    6 2
   3    1   24 1
   4    2    3 2
   5    2   25 1
   6    3    4 1
   7    3   23 1
   8    4    5 1
   9    4    7 1
  10    5    6 1
  11    5    9 2
  12    6   26 1
  13    7    8 2
  14    7   11 1
  15    8    9 1
  16    8   10 1
  17   10   15 1
  18   10   13 1
  19   10   27 1
  20   11   12 1
  21   11   28 1
  22   12   19 1
  23   12   14 1
  24   12   29 1
  25   13   18 1
  26   13   30 1
  27   13   31 1
  28   14   22 1
  29   14   32 1
  30   14   33 1
  31   15   16 1
  32   15   34 1
  33   15   35 1
  34   16   17 1
  35   16   36 1
  36   16   37 1
  37   17   18 1
  38   17   38 1
  39   17   39 1
  40   18   40 1
  41   18   41 1
  42   19   20 1
  43   19   42 1
  44   19   43 1
  45   20   21 1
  46   20   44 1
  47   20   45 1
  48   21   22 1
  49   21   46 1
  50   21   47 1
  51   22   48 1
  52   22   49 1
  53   23   50 1
  54   23   51 1
  55   23   52 1

#	End of record

