#	Name: ASD01917850
#	Creating user name:	WinNT
#	Creation time:	15. 06. 2019 20:10

#	Modifying user name:	WinNT
#	Modification time:	15. 06. 2019 20:10

#	Program:	/corina/corina34_cracker 3.40 0067  02.08.2006

@<TRIPOS>MOLECULE
ASD01917850
  43   46    0    0    0
SMALL
NO_CHARGES


@<TRIPOS>ATOM
   1 C1             0.0366     1.1793    -0.2521 C.2     
   2 C2            -0.0201    -0.1652    -0.2137 C.2     
   3 C3            -1.3252    -0.9352    -0.0829 C.3     
   4 C4            -2.4071     0.0005     0.4616 C.3     
   5 N5            -2.3678     1.2673    -0.2844 N.am    
   6 C6            -1.1586     2.1000    -0.1608 C.3     
   7 C7            -3.4039     1.6536    -1.0549 C.2     
   8 O8            -4.3334     0.8924    -1.2514 O.2     
   9 S9             1.7174     1.6675    -0.4167 S.3     
  10 C10            2.2012     0.0282    -0.4153 C.2     
  11 N11            1.1730    -0.7369    -0.3030 N.2     
  12 C12            3.6253    -0.4514    -0.5294 C.3     
  13 O13            3.9558    -0.6390    -1.9070 O.3     
  14 C14            5.2131    -1.0725    -2.1864 C.ar    
  15 C15            5.6016    -1.2759    -3.5026 C.ar    
  16 C16            6.8802    -1.7166    -3.7839 C.ar    
  17 C17            7.7726    -1.9550    -2.7550 C.ar    
  18 C18            7.3878    -1.7534    -1.4424 C.ar    
  19 C19            6.1122    -1.3069    -1.1561 C.ar    
  20 C20           -3.4116     2.9880    -1.6553 C.2     
  21 S21           -2.2815     4.2927    -1.3018 S.3     
  22 C22           -3.0844     5.3074    -2.4184 C.2     
  23 N23           -4.0837     4.6816    -2.9662 N.2     
  24 C24           -4.2931     3.4435    -2.5952 C.2     
  25 O25           -2.7300     6.5836    -2.6934 O.3     
  26 C26           -3.5193     7.2826    -3.6580 C.3     
  27 H27           -1.6265    -1.3105    -1.0609 H       
  28 H28           -1.1878    -1.7713     0.6028 H       
  29 H29           -3.3856    -0.4640     0.3398 H       
  30 H30           -2.2233     0.1940     1.5184 H       
  31 H31           -1.1594     2.6140     0.8004 H       
  32 H32           -1.1261     2.8284    -0.9712 H       
  33 H33            4.2945     0.2901    -0.0930 H       
  34 H34            3.7342    -1.3966     0.0023 H       
  35 H35            4.9048    -1.0901    -4.3065 H       
  36 H36            7.1830    -1.8754    -4.8084 H       
  37 H37            8.7718    -2.2995    -2.9771 H       
  38 H38            8.0864    -1.9410    -0.6405 H       
  39 H39            5.8121    -1.1496    -0.1307 H       
  40 H40           -5.0928     2.8372    -2.9943 H       
  41 H41           -3.4789     6.7555    -4.6112 H       
  42 H42           -4.5525     7.3331    -3.3143 H       
  43 H43           -3.1286     8.2923    -3.7842 H       
@<TRIPOS>BOND
   1    1    2 2
   2    1    9 1
   3    1    6 1
   4    2    3 1
   5    2   11 1
   6    3    4 1
   7    3   27 1
   8    3   28 1
   9    4    5 1
  10    4   29 1
  11    4   30 1
  12    5    6 1
  13    5    7 am
  14    6   31 1
  15    6   32 1
  16    7    8 2
  17    7   20 1
  18    9   10 1
  19   10   11 2
  20   10   12 1
  21   12   13 1
  22   12   33 1
  23   12   34 1
  24   13   14 1
  25   14   15 ar
  26   14   19 ar
  27   15   16 ar
  28   15   35 1
  29   16   17 ar
  30   16   36 1
  31   17   18 ar
  32   17   37 1
  33   18   19 ar
  34   18   38 1
  35   19   39 1
  36   20   21 1
  37   20   24 2
  38   21   22 1
  39   22   25 1
  40   22   23 2
  41   23   24 1
  42   24   40 1
  43   25   26 1
  44   26   41 1
  45   26   42 1
  46   26   43 1

#	End of record

