#	Name: ASD08150080
#	Creating user name:	WinNT
#	Creation time:	15. 06. 2019 21:15

#	Modifying user name:	WinNT
#	Modification time:	15. 06. 2019 21:15

#	Program:	/corina/corina34_cracker 3.40 0067  02.08.2006

@<TRIPOS>MOLECULE
ASD08150080
  51   54    0    0    0
SMALL
NO_CHARGES


@<TRIPOS>ATOM
   1 O1             0.6410     0.9652    -1.9791 O.3     
   2 C2             1.0133    -0.3157    -1.8788 C.2     
   3 N3             1.1965    -0.7296    -0.6175 N.am    
   4 C4             0.9222     0.3904     0.2957 C.3     
   5 C5             0.5421     1.5482    -0.6475 C.3     
   6 O6             1.1706    -1.0380    -2.8431 O.2     
   7 C7             2.1726     0.7438     1.1035 C.3     
   8 C8             3.2452    -3.5657     0.1524 C.ar    
   9 N9             2.3714    -4.4933     0.5055 N.ar    
  10 C10            1.0629    -4.2343     0.5089 C.ar    
  11 C11            0.6236    -2.9616     0.1321 C.ar    
  12 C12            1.5828    -2.0113    -0.2338 C.ar    
  13 N13            2.8672    -2.3491    -0.2106 N.ar    
  14 C14           -1.6679    -7.1686     1.6226 C.ar    
  15 N15           -0.8207    -7.4228     0.6447 N.ar    
  16 C16            0.0632    -6.5190     0.2590 C.ar    
  17 C17            0.0897    -5.2797     0.9055 C.ar    
  18 C18           -0.8266    -5.0540     1.9364 C.ar    
  19 N19           -1.6768    -6.0138     2.2582 N.ar    
  20 C20            1.0275    -6.8198    -0.8594 C.3     
  21 F21            0.6945    -8.0460    -1.4450 F       
  22 F22            0.9547    -5.8079    -1.8226 F       
  23 F23            2.3283    -6.8848    -0.3487 F       
  24 N24            4.5973    -3.8739     0.1680 N.3     
  25 C25            5.3939    -2.7263     0.6259 C.3     
  26 C26            6.8702    -3.1278     0.6849 C.3     
  27 O27            7.2837    -3.5951    -0.6019 O.3     
  28 C28            6.5292    -4.7127    -1.0784 C.3     
  29 C29            5.0496    -4.3273    -1.1553 C.3     
  30 C30            4.9241    -2.3013     2.0186 C.3     
  31 N31           -0.7411    -2.6464     0.1208 N.pl3   
  32 H32            0.0920     0.1489     0.9593 H       
  33 H33            1.2438     2.3752    -0.5393 H       
  34 H34           -0.4768     1.8821    -0.4513 H       
  35 H35            2.9753     1.0302     0.4240 H       
  36 H36            1.9497     1.5744     1.7732 H       
  37 H37            2.4835    -0.1215     1.6889 H       
  38 H38           -2.3797    -7.9288     1.9087 H       
  39 H39           -0.8401    -4.1103     2.4615 H       
  40 H40            5.2700    -1.8964    -0.0698 H       
  41 H41            7.4712    -2.2640     0.9689 H       
  42 H42            7.0024    -3.9216     1.4201 H       
  43 H43            6.8838    -4.9952    -2.0697 H       
  44 H44            6.6515    -5.5526    -0.3945 H       
  45 H45            4.4634    -5.1931    -1.4634 H       
  46 H46            4.9201    -3.5230    -1.8794 H       
  47 H47            4.9485    -3.1609     2.6883 H       
  48 H48            5.5832    -1.5227     2.4025 H       
  49 H49            3.9057    -1.9175     1.9570 H       
  50 H50           -1.3923    -3.3001     0.4201 H       
  51 H51           -1.0350    -1.7745    -0.1863 H       
@<TRIPOS>BOND
   1    1    2 1
   2    1    5 1
   3    2    3 am
   4    2    6 2
   5    3    4 1
   6    3   12 1
   7    4    5 1
   8    4    7 1
   9    4   32 1
  10    5   33 1
  11    5   34 1
  12    7   35 1
  13    7   36 1
  14    7   37 1
  15    8    9 ar
  16    8   13 ar
  17    8   24 1
  18    9   10 ar
  19   10   11 ar
  20   10   17 1
  21   11   12 ar
  22   11   31 1
  23   12   13 ar
  24   14   15 ar
  25   14   19 ar
  26   14   38 1
  27   15   16 ar
  28   16   17 ar
  29   16   20 1
  30   17   18 ar
  31   18   19 ar
  32   18   39 1
  33   20   21 1
  34   20   22 1
  35   20   23 1
  36   24   25 1
  37   24   29 1
  38   25   26 1
  39   25   30 1
  40   25   40 1
  41   26   27 1
  42   26   41 1
  43   26   42 1
  44   27   28 1
  45   28   29 1
  46   28   43 1
  47   28   44 1
  48   29   45 1
  49   29   46 1
  50   30   47 1
  51   30   48 1
  52   30   49 1
  53   31   50 1
  54   31   51 1

#	End of record

