#	Name: ASD06130004
#	Creating user name:	WinNT
#	Creation time:	15. 06. 2019 21:05

#	Modifying user name:	WinNT
#	Modification time:	15. 06. 2019 21:05

#	Program:	/corina/corina34_cracker 3.40 0067  02.08.2006

@<TRIPOS>MOLECULE
ASD06130004
  69   71    0    0    0
SMALL
NO_CHARGES


@<TRIPOS>ATOM
   1 C1            -0.0159     1.3233     0.0093 C.ar    
   2 N2             0.0021    -0.0041     0.0020 N.ar    
   3 C3            -1.1255    -0.7059     0.0090 C.ar    
   4 C4            -2.3487    -0.0134     0.0244 C.ar    
   5 C5            -2.3190     1.3911     0.0317 C.ar    
   6 N6            -1.1450     2.0142     0.0293 N.ar    
   7 N7            -3.6523    -0.3855     0.0353 N.2     
   8 C8            -4.4054     0.6751     0.0484 C.2     
   9 N9            -3.6293     1.7974     0.0468 N.pl3   
  10 N10           -1.0968    -2.0893     0.0009 N.pl3   
  11 C11            0.1868    -2.7952    -0.0157 C.3     
  12 C12           -0.0615    -4.3049    -0.0219 C.3     
  13 S13            1.5279    -5.1790    -0.0423 S.3     
  14 C14            1.0337    -6.9244    -0.0474 C.3     
  15 S15            1.5152     2.1951    -0.0006 S.3     
  16 C16            2.6702     0.8017    -0.0191 C.3     
  17 C17            4.1062     1.3296    -0.0300 C.3     
  18 C18           -4.1075     3.1822     0.0594 C.3     
  19 C19           -4.1802     3.7476    -1.3819 C.3     
  20 C20           -5.2426     4.8645    -1.2389 C.3     
  21 C21           -6.0237     4.4821     0.0333 C.3     
  22 O22           -5.4762     3.2433     0.5147 O.3     
  23 O23           -4.6122     6.1365    -1.0753 O.3     
  24 O24           -2.9200     4.2905    -1.7809 O.3     
  25 C25           -7.5057     4.3009    -0.3010 C.3     
  26 O26           -8.2395     4.0615     0.9017 O.3     
  27 P27           -9.8318     3.8249     0.9250 P.3     
  28 O28          -10.5807     5.1662     0.4431 O.3     
  29 O29          -10.1786     2.7117     0.0135 O.2     
  30 O30          -10.2980     3.4581     2.4217 O.3     
  31 P31          -11.5961     2.7369     3.0437 P.3     
  32 C32          -11.4397     2.6638     4.8585 C.3     
  33 P33          -12.9096     1.8472     5.5627 P.3     
  34 O34          -12.9145     3.5738     2.6519 O.3     
  35 O35          -11.7045     1.3637     2.5022 O.2     
  36 Cl36          -9.9633     1.7266     5.2972 Cl      
  37 Cl37         -11.3077     4.3366     5.5181 Cl      
  38 O38          -14.1215     2.6165     5.2025 O.2     
  39 O39          -13.0274     0.3534     4.9737 O.3     
  40 O40          -12.7714     1.7827     7.1655 O.3     
  41 C41            5.0826     0.1518    -0.0457 C.3     
  42 F42            4.8615    -0.6220    -1.1900 F       
  43 F43            6.3956     0.6345    -0.0556 F       
  44 F44            4.8833    -0.6343     1.0944 F       
  45 H45           -5.4853     0.6684     0.0591 H       
  46 H46           -1.9265    -2.5916     0.0061 H       
  47 H47            0.7441    -2.5150    -0.9096 H       
  48 H48            0.7615    -2.5251     0.8703 H       
  49 H49           -0.6188    -4.5851     0.8720 H       
  50 H50           -0.6361    -4.5750    -0.9078 H       
  51 H51            0.4490    -7.1391     0.8471 H       
  52 H52            0.4316    -7.1289    -0.9328 H       
  53 H53            1.9234    -7.5539    -0.0597 H       
  54 H54            2.5150     0.1893     0.8691 H       
  55 H55            2.4980     0.1988    -0.9108 H       
  56 H56            4.2614     1.9421    -0.9182 H       
  57 H57            4.2784     1.9325     0.8616 H       
  58 H58           -3.4648     3.8032     0.6834 H       
  59 H59           -4.5123     2.9825    -2.0836 H       
  60 H60           -5.9048     4.8744    -2.1046 H       
  61 H61           -5.9044     5.2585     0.7889 H       
  62 H62           -4.0595     6.4007    -1.8235 H       
  63 H63           -2.9152     4.6567    -2.6759 H       
  64 H64           -7.8824     5.2031    -0.7829 H       
  65 H65           -7.6252     3.4523    -0.9745 H       
  66 H66          -10.3989     5.9385     0.9960 H       
  67 H67          -12.9122     4.4852     2.9750 H       
  68 H68          -12.2661    -0.2088     5.1720 H       
  69 H69          -13.5199     1.3597     7.6080 H       
@<TRIPOS>BOND
   1    1    2 ar
   2    1   15 1
   3    1    6 ar
   4    2    3 ar
   5    3    4 ar
   6    3   10 1
   7    4    5 ar
   8    4    7 1
   9    5    6 ar
  10    5    9 1
  11    7    8 2
  12    8    9 1
  13    8   45 1
  14    9   18 1
  15   10   11 1
  16   10   46 1
  17   11   12 1
  18   11   47 1
  19   11   48 1
  20   12   13 1
  21   12   49 1
  22   12   50 1
  23   13   14 1
  24   14   51 1
  25   14   52 1
  26   14   53 1
  27   15   16 1
  28   16   17 1
  29   16   54 1
  30   16   55 1
  31   17   41 1
  32   17   56 1
  33   17   57 1
  34   18   19 1
  35   18   22 1
  36   18   58 1
  37   19   20 1
  38   19   24 1
  39   19   59 1
  40   20   21 1
  41   20   23 1
  42   20   60 1
  43   21   22 1
  44   21   25 1
  45   21   61 1
  46   23   62 1
  47   24   63 1
  48   25   26 1
  49   25   64 1
  50   25   65 1
  51   26   27 1
  52   27   28 1
  53   27   29 2
  54   27   30 1
  55   28   66 1
  56   30   31 1
  57   31   32 1
  58   31   34 1
  59   31   35 2
  60   32   33 1
  61   32   36 1
  62   32   37 1
  63   33   38 2
  64   33   39 1
  65   33   40 1
  66   34   67 1
  67   39   68 1
  68   40   69 1
  69   41   42 1
  70   41   43 1
  71   41   44 1

#	End of record

