#	Name: ASD01883781
#	Creating user name:	WinNT
#	Creation time:	15. 06. 2019 19:47

#	Modifying user name:	WinNT
#	Modification time:	15. 06. 2019 19:47

#	Program:	/corina/corina34_cracker 3.40 0067  02.08.2006

@<TRIPOS>MOLECULE
ASD01883781
  55   57    0    0    0
SMALL
NO_CHARGES


@<TRIPOS>ATOM
   1 N1            -0.0086     1.1932     0.8093 N.ar    
   2 C2             0.0247    -0.1176     0.6619 C.ar    
   3 C3             1.2241    -0.7836     0.5174 C.ar    
   4 C4             2.4134    -0.0490     0.5289 C.ar    
   5 C5             2.3318     1.3370     0.6875 C.ar    
   6 C6             1.0902     1.9231     0.8256 C.ar    
   7 C7             3.7266    -0.7227     0.3773 C.2     
   8 C8             3.9274    -2.0907     0.1140 C.2     
   9 C9             5.2677    -2.3084     0.0476 C.2     
  10 N10            5.8906    -1.1194     0.2615 N.pl3   
  11 N11            4.9057    -0.1435     0.4600 N.2     
  12 C12            0.9881     3.4168     0.9974 C.3     
  13 C13            7.3385    -0.8968     0.2774 C.3     
  14 C14            7.8357    -0.6726    -1.1521 C.3     
  15 O15            7.2731     0.5354    -1.6681 O.3     
  16 N16            5.8905    -3.5301    -0.1954 N.pl3   
  17 C17            6.3194    -4.3204     0.8738 C.ar    
  18 C18            6.2279    -3.8407     2.1744 C.ar    
  19 C19            6.6520    -4.6238     3.2302 C.ar    
  20 C20            7.1680    -5.8845     2.9949 C.ar    
  21 C21            7.2611    -6.3670     1.6995 C.ar    
  22 C22            6.8327    -5.5896     0.6390 C.ar    
  23 C23            9.3618    -0.5643    -1.1501 C.3     
  24 C24            6.0960    -3.9865    -1.5722 C.3     
  25 C25            7.6305    -6.7354     4.1495 C.3     
  26 F26            7.4387    -6.0395     5.3478 F       
  27 F27            6.8934    -7.9241     4.1774 F       
  28 F28            8.9889    -7.0325     3.9950 F       
  29 F29            7.7663    -7.5994     1.4727 F       
  30 C30            7.5798    -4.2867    -1.7939 C.3     
  31 C31            5.2769    -5.2554    -1.8165 C.3     
  32 H32           -0.8993    -0.6766     0.6546 H       
  33 H33            1.2439    -1.8567     0.3975 H       
  34 H34            3.2273     1.9406     0.7021 H       
  35 H35            3.1547    -2.8347    -0.0121 H       
  36 H36            1.0235     3.6637     2.0585 H       
  37 H37            1.8199     3.8992     0.4841 H       
  38 H38            0.0471     3.7677     0.5739 H       
  39 H39            7.5645    -0.0189     0.8826 H       
  40 H40            7.8355    -1.7688     0.7024 H       
  41 H41            7.5318    -1.5115    -1.7783 H       
  42 H42            7.5457     0.7411    -2.5728 H       
  43 H43            5.8257    -2.8557     2.3599 H       
  44 H44            6.5808    -4.2505     4.2412 H       
  45 H45            6.9051    -5.9654    -0.3709 H       
  46 H46            9.6658     0.2745    -0.5240 H       
  47 H47            9.7910    -1.4858    -0.7565 H       
  48 H48            9.7161    -0.4046    -2.1685 H       
  49 H49            5.7754    -3.2081    -2.2647 H       
  50 H50            7.8788    -5.1250    -1.1647 H       
  51 H51            7.7467    -4.5404    -2.8408 H       
  52 H52            8.1710    -3.4085    -1.5342 H       
  53 H53            4.2314    -5.0654    -1.5734 H       
  54 H54            5.3595    -5.5451    -2.8641 H       
  55 H55            5.6561    -6.0597    -1.1861 H       
@<TRIPOS>BOND
   1    1    2 ar
   2    1    6 ar
   3    2    3 ar
   4    2   32 1
   5    3    4 ar
   6    3   33 1
   7    4    5 ar
   8    4    7 1
   9    5    6 ar
  10    5   34 1
  11    6   12 1
  12    7    8 1
  13    7   11 2
  14    8    9 2
  15    8   35 1
  16    9   10 1
  17    9   16 1
  18   10   11 1
  19   10   13 1
  20   12   36 1
  21   12   37 1
  22   12   38 1
  23   13   14 1
  24   13   39 1
  25   13   40 1
  26   14   15 1
  27   14   23 1
  28   14   41 1
  29   15   42 1
  30   16   17 1
  31   16   24 1
  32   17   18 ar
  33   17   22 ar
  34   18   19 ar
  35   18   43 1
  36   19   20 ar
  37   19   44 1
  38   20   21 ar
  39   20   25 1
  40   21   22 ar
  41   21   29 1
  42   22   45 1
  43   23   46 1
  44   23   47 1
  45   23   48 1
  46   24   30 1
  47   24   31 1
  48   24   49 1
  49   25   26 1
  50   25   27 1
  51   25   28 1
  52   30   50 1
  53   30   51 1
  54   30   52 1
  55   31   53 1
  56   31   54 1
  57   31   55 1

#	End of record

