#	Name: ASD05430187
#	Creating user name:	WinNT
#	Creation time:	15. 06. 2019 20:59

#	Modifying user name:	WinNT
#	Modification time:	15. 06. 2019 20:59

#	Program:	/corina/corina34_cracker 3.40 0067  02.08.2006

@<TRIPOS>MOLECULE
ASD05430187
  69   75    0    0    0
SMALL
NO_CHARGES


@<TRIPOS>ATOM
   1 C1            -0.0168     1.3907     0.0097 C.ar    
   2 C2             0.0021    -0.0041     0.0020 C.ar    
   3 C3             1.2137    -0.6728    -0.0132 C.ar    
   4 C4             2.4074     0.0328    -0.0203 C.ar    
   5 C5             2.4074     1.3994    -0.0130 C.ar    
   6 C6             1.1963     2.0964     0.0019 C.ar    
   7 C7             5.3558     3.3786     1.3917 C.3     
   8 C8             4.1031     2.5102     1.4152 C.3     
   9 C9             3.7120     2.1538    -0.0204 C.3     
  10 C10            6.2463     3.1467     2.6021 C.3     
  11 C11            5.5142     2.6219     3.8386 C.3     
  12 N12            4.8866     1.3497     3.4690 N.pl3   
  13 C13            4.3396     1.2423     2.1926 C.2     
  14 N14            4.0705     0.0887     1.6936 N.2     
  15 C15            3.4120     0.1450     4.9716 C.ar    
  16 C16            3.0963    -0.8468     5.8814 C.ar    
  17 N17           -1.2013    -0.7255     0.0101 N.pl3   
  18 C18           -2.2464    -0.5427     0.8578 C.2     
  19 C19           -1.5464    -1.7439    -0.8399 C.2     
  20 C20           -2.7798    -2.1495    -0.4823 C.2     
  21 N21           -3.1825    -1.4005     0.5548 N.2     
  22 C22           -3.5722    -3.2517    -1.1369 C.3     
  23 C23            4.8038     0.2264     4.3993 C.3     
  24 C24            5.1234    -1.0651     3.6355 C.3     
  25 N25            4.3551    -1.0903     2.3886 N.pl3   
  26 C26            1.8203    -0.9228     6.4066 C.ar    
  27 C27            0.8579    -0.0050     6.0212 C.ar    
  28 C28            1.1752     0.9879     5.1099 C.ar    
  29 C29            2.4505     1.0587     4.5821 C.ar    
  30 F30           -0.3900    -0.0786     6.5336 F       
  31 N31           -0.4476     3.6024     0.0235 N.2     
  32 O32           -1.0081     2.3047     0.0187 O.3     
  33 C33            7.5272     2.3588     2.2812 C.3     
  34 O34            8.1944     3.3265     3.1171 O.3     
  35 C35            7.1786     4.3298     2.9135 C.3     
  36 C36            0.8473     3.5199     0.0123 C.2     
  37 C37            3.8779    -2.3711     1.8615 C.3     
  38 C38            5.8173     0.4193     5.5291 C.3     
  39 H39            1.2295    -1.7526    -0.0191 H       
  40 H40            3.3454    -0.5024    -0.0314 H       
  41 H41            5.9232     3.1551     0.4883 H       
  42 H42            5.0580     4.4269     1.3686 H       
  43 H43            3.2898     3.0677     1.8798 H       
  44 H44            4.4889     1.5318    -0.4649 H       
  45 H45            3.5999     3.0676    -0.6040 H       
  46 H46            6.2245     2.4627     4.6500 H       
  47 H47            4.7508     3.3357     4.1480 H       
  48 H48            3.8471    -1.5628     6.1816 H       
  49 H49           -2.2947     0.1894     1.6504 H       
  50 H50           -0.9447    -2.1443    -1.6425 H       
  51 H51           -3.3508    -4.1993    -0.6458 H       
  52 H52           -4.6369    -3.0361    -1.0474 H       
  53 H53           -3.3019    -3.3168    -2.1908 H       
  54 H54            6.1889    -1.0993     3.4080 H       
  55 H55            4.8531    -1.9260     4.2469 H       
  56 H56            1.5738    -1.6979     7.1171 H       
  57 H57            0.4253     1.7044     4.8086 H       
  58 H58            2.6983     1.8331     3.8713 H       
  59 H59            7.5354     1.3465     2.6853 H       
  60 H60            7.8219     2.4038     1.2327 H       
  61 H61            7.3660     4.9805     2.0593 H       
  62 H62            6.9108     4.8765     3.8177 H       
  63 H63            1.5405     4.3481     0.0106 H       
  64 H64            2.8882    -2.5843     2.2655 H       
  65 H65            3.8228    -2.3187     0.7742 H       
  66 H66            4.5675    -3.1634     2.1526 H       
  67 H67            5.5980     1.3458     6.0597 H       
  68 H68            5.7535    -0.4200     6.2216 H       
  69 H69            6.8226     0.4694     5.1107 H       
@<TRIPOS>BOND
   1    1    2 ar
   2    1    6 ar
   3    1   32 1
   4    2    3 ar
   5    2   17 1
   6    3    4 ar
   7    3   39 1
   8    4    5 ar
   9    4   40 1
  10    5    6 ar
  11    5    9 1
  12    6   36 1
  13    7    8 1
  14    7   10 1
  15    7   41 1
  16    7   42 1
  17    8    9 1
  18    8   13 1
  19    8   43 1
  20    9   44 1
  21    9   45 1
  22   10   11 1
  23   10   33 1
  24   10   35 1
  25   11   12 1
  26   11   46 1
  27   11   47 1
  28   12   13 1
  29   12   23 1
  30   13   14 2
  31   14   25 1
  32   15   16 ar
  33   15   23 1
  34   15   29 ar
  35   16   26 ar
  36   16   48 1
  37   17   18 1
  38   17   19 1
  39   18   21 2
  40   18   49 1
  41   19   20 2
  42   19   50 1
  43   20   21 1
  44   20   22 1
  45   22   51 1
  46   22   52 1
  47   22   53 1
  48   23   24 1
  49   23   38 1
  50   24   25 1
  51   24   54 1
  52   24   55 1
  53   25   37 1
  54   26   27 ar
  55   26   56 1
  56   27   28 ar
  57   27   30 1
  58   28   29 ar
  59   28   57 1
  60   29   58 1
  61   31   32 1
  62   31   36 2
  63   33   34 1
  64   33   59 1
  65   33   60 1
  66   34   35 1
  67   35   61 1
  68   35   62 1
  69   36   63 1
  70   37   64 1
  71   37   65 1
  72   37   66 1
  73   38   67 1
  74   38   68 1
  75   38   69 1

#	End of record

