#	Name: ASD01028614
#	Creating user name:	WinNT
#	Creation time:	15. 06. 2019 18:57

#	Modifying user name:	WinNT
#	Modification time:	15. 06. 2019 18:57

#	Program:	/corina/corina34_cracker 3.40 0067  02.08.2006

@<TRIPOS>MOLECULE
ASD01028614
  53   57    0    0    0
SMALL
NO_CHARGES


@<TRIPOS>ATOM
   1 N1            -0.0157     1.3082     0.0092 N.ar    
   2 C2             0.0021    -0.0041     0.0020 C.ar    
   3 C3             1.1922    -0.7202    -0.0132 C.ar    
   4 C4             2.3997    -0.0447    -0.0211 C.ar    
   5 C5             2.3688     1.3681    -0.0132 C.ar    
   6 C6             3.5518     2.1216    -0.0208 C.ar    
   7 C7             3.4891     3.4809    -0.0134 C.ar    
   8 C8             2.2563     4.1399     0.0018 C.ar    
   9 C9             1.0778     3.4287     0.0101 C.ar    
  10 C10            1.1142     2.0252     0.0023 C.ar    
  11 O11            2.2210     5.4978     0.0089 O.3     
  12 C12            3.4769     6.1794     0.0002 C.3     
  13 C13            3.2371     7.6905     0.0100 C.3     
  14 O14            2.6119     8.0656     1.2391 O.3     
  15 C15            2.3426     9.4645     1.3509 C.3     
  16 O16            3.5766    -0.7177    -0.0354 O.3     
  17 C17            3.5077    -2.1450    -0.0420 C.3     
  18 C18            6.8452    -3.5099     0.5394 C.2     
  19 C19            7.8592    -3.9250     1.4297 C.2     
  20 C20            7.6465    -3.8393     2.7691 C.2     
  21 C21            6.4127    -3.3356     3.2511 C.2     
  22 C22            5.4467    -2.9402     2.3740 C.2     
  23 N23            5.6581    -3.0253     1.0312 N.pl3   
  24 N24            5.6097    -3.0004    -1.1207 N.2     
  25 N25            6.7589    -3.4677    -0.7798 N.2     
  26 C26            4.9026    -2.7151    -0.0579 C.2     
  27 O27            5.9956    -2.1154     5.4236 O.3     
  28 N28            5.8194    -2.3612     6.5941 N.2     
  29 C29            5.8504    -3.6419     6.8325 C.2     
  30 C30            6.0850    -4.2761     5.5958 C.2     
  31 C31            6.1727    -3.2393     4.7063 C.2     
  32 C32            5.6708    -4.3137     8.1694 C.3     
  33 F33            9.0299    -4.4034     0.9545 F       
  34 H34           -0.9344    -0.5420     0.0084 H       
  35 H35            1.1751    -1.8000    -0.0185 H       
  36 H36            4.5103     1.6241    -0.0322 H       
  37 H37            4.4024     4.0574    -0.0190 H       
  38 H38            0.1306     3.9474     0.0219 H       
  39 H39            4.0499     5.8967     0.8833 H       
  40 H40            4.0327     5.9056    -0.8966 H       
  41 H41            4.1903     8.2103    -0.0862 H       
  42 H42            2.5899     7.9611    -0.8242 H       
  43 H43            3.2772    10.0211     1.2825 H       
  44 H44            1.6768     9.7719     0.5445 H       
  45 H45            1.8682     9.6675     2.3110 H       
  46 H46            2.9853    -2.4876     0.8512 H       
  47 H47            2.9687    -2.4787    -0.9287 H       
  48 H48            8.4130    -4.1534     3.4621 H       
  49 H49            4.5081    -2.5570     2.7463 H       
  50 H50            6.1750    -5.3337     5.3965 H       
  51 H51            4.6146    -4.5310     8.3280 H       
  52 H52            6.2398    -5.2432     8.1883 H       
  53 H53            6.0283    -3.6528     8.9591 H       
@<TRIPOS>BOND
   1    1    2 ar
   2    1   10 ar
   3    2    3 ar
   4    2   34 1
   5    3    4 ar
   6    3   35 1
   7    4    5 ar
   8    4   16 1
   9    5    6 ar
  10    5   10 ar
  11    6    7 ar
  12    6   36 1
  13    7    8 ar
  14    7   37 1
  15    8    9 ar
  16    8   11 1
  17    9   10 ar
  18    9   38 1
  19   11   12 1
  20   12   13 1
  21   12   39 1
  22   12   40 1
  23   13   14 1
  24   13   41 1
  25   13   42 1
  26   14   15 1
  27   15   43 1
  28   15   44 1
  29   15   45 1
  30   16   17 1
  31   17   26 1
  32   17   46 1
  33   17   47 1
  34   18   19 1
  35   18   23 1
  36   18   25 2
  37   19   20 2
  38   19   33 1
  39   20   21 1
  40   20   48 1
  41   21   22 2
  42   21   31 1
  43   22   23 1
  44   22   49 1
  45   23   26 1
  46   24   25 1
  47   24   26 2
  48   27   28 1
  49   27   31 1
  50   28   29 2
  51   29   30 1
  52   29   32 1
  53   30   31 2
  54   30   50 1
  55   32   51 1
  56   32   52 1
  57   32   53 1

#	End of record

