#	Name: ASD01883852
#	Creating user name:	WinNT
#	Creation time:	15. 06. 2019 19:47

#	Modifying user name:	WinNT
#	Modification time:	15. 06. 2019 19:47

#	Program:	/corina/corina34_cracker 3.40 0067  02.08.2006

@<TRIPOS>MOLECULE
ASD01883852
  46   50    0    0    0
SMALL
NO_CHARGES


@<TRIPOS>ATOM
   1 O1            -0.0163     1.3537     0.0095 O.3     
   2 C2             0.1896     0.0157    -0.0968 C.2     
   3 C3             1.6499    -1.8711    -0.2670 C.2     
   4 C4             1.4615    -0.4813    -0.1576 C.2     
   5 C5            -0.9071    -0.8694    -0.1393 C.2     
   6 C6            -0.7052    -2.1982    -0.2439 C.2     
   7 N7             2.3653    -3.8729    -0.4340 N.2     
   8 N8             2.7246    -2.6405    -0.3456 N.2     
   9 N9             0.5597    -2.7054    -0.3100 N.pl3   
  10 C10            1.0616    -3.9683    -0.4164 C.2     
  11 C11            0.2601    -5.2418    -0.4990 C.3     
  12 C12            0.0159    -5.7831     0.9110 C.3     
  13 C13           -0.8834    -7.0131     1.0496 C.3     
  14 C14            0.6264    -7.1415     1.2618 C.3     
  15 Cl15           2.8271     0.5890    -0.1009 Cl      
  16 C16           -0.6538     2.0016    -1.0932 C.3     
  17 C17           -0.6847     3.4889    -0.8525 C.ar    
  18 C18            0.3590     4.2790    -1.2891 C.ar    
  19 C19            0.3290     5.6543    -1.0663 C.ar    
  20 C20           -0.7558     6.2238    -0.4032 C.ar    
  21 C21           -1.7945     5.4240     0.0293 C.ar    
  22 C22           -1.7619     4.0604    -0.1992 C.ar    
  23 C23            1.4487     6.5090    -1.5331 C.ar    
  24 C24            1.4357     7.8894    -1.3186 C.ar    
  25 N25            2.4538     8.6138    -1.7505 N.ar    
  26 C26            3.4695     8.0511    -2.3747 C.ar    
  27 N27            3.5211     6.7528    -2.5975 N.ar    
  28 C28            2.5475     5.9547    -2.1941 C.ar    
  29 H29           -1.9135    -0.4811    -0.0875 H       
  30 H30           -1.5523    -2.8673    -0.2753 H       
  31 H31           -0.6962    -5.0386    -0.9809 H       
  32 H32            0.8107    -5.9805    -1.0815 H       
  33 H33           -0.0317    -5.0333     1.7007 H       
  34 H34           -1.5223    -7.0727     1.9307 H       
  35 H35           -1.3010    -7.4367     0.1363 H       
  36 H36            1.2020    -7.6495     0.4881 H       
  37 H37            0.9807    -7.2855     2.2825 H       
  38 H38           -0.0986     1.7929    -2.0077 H       
  39 H39           -1.6731     1.6286    -1.1939 H       
  40 H40            1.1978     3.8324    -1.8024 H       
  41 H41           -0.7840     7.2891    -0.2275 H       
  42 H42           -2.6357     5.8644     0.5438 H       
  43 H43           -2.5766     3.4383     0.1409 H       
  44 H44            0.6069     8.3575    -0.8083 H       
  45 H45            4.2844     8.6732    -2.7145 H       
  46 H46            2.5990     4.8914    -2.3762 H       
@<TRIPOS>BOND
   1    1    2 1
   2    1   16 1
   3    2    5 1
   4    2    4 2
   5    3    4 1
   6    3    9 1
   7    3    8 2
   8    4   15 1
   9    5    6 2
  10    5   29 1
  11    6    9 1
  12    6   30 1
  13    7    8 1
  14    7   10 2
  15    9   10 1
  16   10   11 1
  17   11   12 1
  18   11   31 1
  19   11   32 1
  20   12   13 1
  21   12   14 1
  22   12   33 1
  23   13   14 1
  24   13   34 1
  25   13   35 1
  26   14   36 1
  27   14   37 1
  28   16   17 1
  29   16   38 1
  30   16   39 1
  31   17   18 ar
  32   17   22 ar
  33   18   19 ar
  34   18   40 1
  35   19   20 ar
  36   19   23 1
  37   20   21 ar
  38   20   41 1
  39   21   22 ar
  40   21   42 1
  41   22   43 1
  42   23   24 ar
  43   23   28 ar
  44   24   25 ar
  45   24   44 1
  46   25   26 ar
  47   26   27 ar
  48   26   45 1
  49   27   28 ar
  50   28   46 1

#	End of record

