#	Name: ASD01913209
#	Creating user name:	WinNT
#	Creation time:	15. 06. 2019 20:01

#	Modifying user name:	WinNT
#	Modification time:	15. 06. 2019 20:01

#	Program:	/corina/corina34_cracker 3.40 0067  02.08.2006

@<TRIPOS>MOLECULE
ASD01913209
  47   50    0    0    0
SMALL
NO_CHARGES


@<TRIPOS>ATOM
   1 C1             3.0141     5.0845     0.6529 C.3     
   2 C2             3.3714     5.8079    -0.6232 C.2     
   3 C3             3.6962     5.1862    -1.7730 C.2     
   4 C4             3.7456     3.6916    -1.9571 C.3     
   5 C5             3.8132     3.0249    -0.5772 C.3     
   6 N6             2.8310     3.6618     0.3132 N.am    
   7 O7             3.9539     6.1406    -2.6798 O.3     
   8 C8             3.7815     7.3286    -2.0796 C.2     
   9 N9             3.4297     7.1268    -0.8389 N.2     
  10 C10            3.9641     8.6751    -2.7314 C.3     
  11 C11            1.7900     2.9622     0.8065 C.2     
  12 O12            1.5912     1.8228     0.4320 O.2     
  13 C13            0.8910     3.5796     1.8017 C.ar    
  14 C14            1.4034     4.4631     2.7508 C.ar    
  15 C15            0.5502     5.0425     3.6873 C.ar    
  16 C16           -0.8197     4.7321     3.6682 C.ar    
  17 C17           -1.3183     3.8516     2.7191 C.ar    
  18 C18           -0.4755     3.2827     1.7889 C.ar    
  19 C19            1.0677     5.9506     4.6661 C.1     
  20 C20            1.4921     6.6951     5.4685 C.1     
  21 C21            2.0096     7.6033     6.4473 C.ar    
  22 C22            1.1469     8.1803     7.3834 C.ar    
  23 C23            1.6628     9.0547     8.3220 C.ar    
  24 C24            3.0245     9.3268     8.2977 C.ar    
  25 C25            3.8217     8.7214     7.3439 C.ar    
  26 N26            3.3086     7.8875     6.4627 N.ar    
  27 O27           -1.6547     5.2928     4.5778 O.3     
  28 C28           -3.0353     4.9323     4.4998 C.3     
  29 H29            3.8205     5.1918     1.3784 H       
  30 H30            2.0890     5.4901     1.0626 H       
  31 H31            2.8493     3.3582    -2.4803 H       
  32 H32            4.6296     3.4238    -2.5358 H       
  33 H33            3.5835     1.9637    -0.6734 H       
  34 H34            4.8139     3.1462    -0.1624 H       
  35 H35            3.0195     8.9980    -3.1691 H       
  36 H36            4.2847     9.4003    -1.9835 H       
  37 H37            4.7202     8.6008    -3.5130 H       
  38 H38            2.4577     4.6971     2.7601 H       
  39 H39           -2.3718     3.6142     2.7065 H       
  40 H40           -0.8712     2.6018     1.0498 H       
  41 H41            0.0925     7.9468     7.3736 H       
  42 H42            1.0209     9.5164     9.0577 H       
  43 H43            3.4570    10.0059     9.0176 H       
  44 H44            4.8807     8.9322     7.3235 H       
  45 H45           -3.5906     5.4497     5.2822 H       
  46 H46           -3.4307     5.2169     3.5248 H       
  47 H47           -3.1377     3.8554     4.6331 H       
@<TRIPOS>BOND
   1    1    2 1
   2    1    6 1
   3    1   29 1
   4    1   30 1
   5    2    3 2
   6    2    9 1
   7    3    4 1
   8    3    7 1
   9    4    5 1
  10    4   31 1
  11    4   32 1
  12    5    6 1
  13    5   33 1
  14    5   34 1
  15    6   11 am
  16    7    8 1
  17    8    9 2
  18    8   10 1
  19   10   35 1
  20   10   36 1
  21   10   37 1
  22   11   12 2
  23   11   13 1
  24   13   14 ar
  25   13   18 ar
  26   14   15 ar
  27   14   38 1
  28   15   16 ar
  29   15   19 1
  30   16   17 ar
  31   16   27 1
  32   17   18 ar
  33   17   39 1
  34   18   40 1
  35   19   20 3
  36   20   21 1
  37   21   22 ar
  38   21   26 ar
  39   22   23 ar
  40   22   41 1
  41   23   24 ar
  42   23   42 1
  43   24   25 ar
  44   24   43 1
  45   25   26 ar
  46   25   44 1
  47   27   28 1
  48   28   45 1
  49   28   46 1
  50   28   47 1

#	End of record

