#	Name: ASD00460010
#	Creating user name:	WinNT
#	Creation time:	15. 06. 2019 18:36

#	Modifying user name:	WinNT
#	Modification time:	15. 06. 2019 18:36

#	Program:	/corina/corina34_cracker 3.40 0067  02.08.2006

@<TRIPOS>MOLECULE
ASD00460010
  71   75    0    0    0
SMALL
NO_CHARGES


@<TRIPOS>ATOM
   1 C1             0.0180     1.3772     0.2848 C.ar    
   2 C2             0.0366    -0.0051     0.2764 C.ar    
   3 C3             1.2076    -0.6815    -0.0127 C.ar    
   4 C4             2.3619     0.0229    -0.2940 C.ar    
   5 C5             2.3458     1.4103    -0.2867 C.ar    
   6 C6             1.1700     2.0864     0.0037 C.ar    
   7 O7             3.4804     2.1056    -0.5627 O.3     
   8 C8             3.3899     3.5315    -0.5370 C.3     
   9 C9             4.7557     4.1353    -0.8698 C.3     
  10 C10            4.6310     5.6573    -0.9651 C.3     
  11 N11            5.9127     6.2273    -1.4013 N.3     
  12 C12            5.8304     7.6904    -1.5042 C.3     
  13 C13            7.1809     8.2464    -1.9600 C.3     
  14 C14            7.0965     9.7473    -2.0655 C.ar    
  15 O15            5.6892     3.7973     0.1580 O.3     
  16 C16            4.7528     8.0702    -2.5218 C.3     
  17 C17            5.4716     8.2783    -0.1380 C.3     
  18 C18            1.2243    -2.1884    -0.0205 C.3     
  19 C19            1.0894    -2.7260    -1.4779 C.3     
  20 C20            2.1370    -1.9089    -2.2940 C.3     
  21 C21            3.5071    -2.4351    -1.8087 C.3     
  22 C22            3.1582    -3.5205    -0.7451 C.3     
  23 C23            2.5944    -2.7145     0.4648 C.3     
  24 C24            1.8318    -4.1028    -1.3491 C.3     
  25 C25            3.0458    -2.6904    -3.2450 C.3     
  26 C26            7.4022    10.5350    -0.9716 C.ar    
  27 C27            7.3248    11.9123    -1.0669 C.ar    
  28 C28            6.9416    12.5026    -2.2559 C.ar    
  29 C29            6.6355    11.7144    -3.3526 C.ar    
  30 C30            6.7188    10.3358    -3.2577 C.ar    
  31 F31            6.2606    12.2906    -4.5157 F       
  32 C32            6.8563    14.0037    -2.3591 C.3     
  33 C33            3.7312    -1.9174    -4.3421 C.2     
  34 O34            3.5529    -0.7268    -4.4445 O.2     
  35 O35            4.5400    -2.5516    -5.2055 O.3     
  36 H36           -0.8987     1.9032     0.5069 H       
  37 H37           -0.8649    -0.5577     0.4964 H       
  38 H38            3.2764    -0.5058    -0.5191 H       
  39 H39            1.1548     3.1663     0.0097 H       
  40 H40            2.6572     3.8624    -1.2732 H       
  41 H41            3.0804     3.8582     0.4557 H       
  42 H42            5.1056     3.7391    -1.8231 H       
  43 H43            3.8550     5.9138    -1.6863 H       
  44 H44            4.3671     6.0620     0.0120 H       
  45 H45            6.6608     5.9497    -0.7837 H       
  46 H46            7.9486     7.9757    -1.2350 H       
  47 H47            7.4365     7.8275    -2.9333 H       
  48 H48            5.4413     4.1187     1.0357 H       
  49 H49            3.7907     7.6741    -2.1970 H       
  50 H50            4.6918     9.1559    -2.5981 H       
  51 H51            5.0084     7.6514    -3.4951 H       
  52 H52            6.2393     8.0077     0.5870 H       
  53 H53            5.4106     9.3639    -0.2143 H       
  54 H54            4.5095     7.8822     0.1867 H       
  55 H55            0.4219    -2.5798     0.6048 H       
  56 H56            0.0789    -2.7475    -1.8862 H       
  57 H57            1.9417    -0.8496    -2.4608 H       
  58 H58            4.3507    -1.7748    -1.6075 H       
  59 H59            3.9495    -4.2340    -0.5151 H       
  60 H60            3.2559    -1.8833     0.7090 H       
  61 H61            2.4667    -3.3662     1.3292 H       
  62 H62            1.3276    -4.7758    -0.6555 H       
  63 H63            1.9956    -4.5712    -2.3196 H       
  64 H64            2.7471    -3.7063    -3.5033 H       
  65 H65            7.7015    10.0744    -0.0418 H       
  66 H66            7.5635    12.5268    -0.2114 H       
  67 H67            6.4803     9.7201    -4.1124 H       
  68 H68            7.8182    14.4008    -2.6831 H       
  69 H69            6.0885    14.2750    -3.0836 H       
  70 H70            6.6004    14.4209    -1.3851 H       
  71 H71            4.9573    -2.0137    -5.8922 H       
@<TRIPOS>BOND
   1    1    2 ar
   2    1    6 ar
   3    1   36 1
   4    2    3 ar
   5    2   37 1
   6    3    4 ar
   7    3   18 1
   8    4    5 ar
   9    4   38 1
  10    5    6 ar
  11    5    7 1
  12    6   39 1
  13    7    8 1
  14    8    9 1
  15    8   40 1
  16    8   41 1
  17    9   10 1
  18    9   15 1
  19    9   42 1
  20   10   11 1
  21   10   43 1
  22   10   44 1
  23   11   12 1
  24   11   45 1
  25   12   13 1
  26   12   16 1
  27   12   17 1
  28   13   14 1
  29   13   46 1
  30   13   47 1
  31   14   26 ar
  32   14   30 ar
  33   15   48 1
  34   16   49 1
  35   16   50 1
  36   16   51 1
  37   17   52 1
  38   17   53 1
  39   17   54 1
  40   18   19 1
  41   18   23 1
  42   18   55 1
  43   19   20 1
  44   19   24 1
  45   19   56 1
  46   20   21 1
  47   20   25 1
  48   20   57 1
  49   21   22 1
  50   21   25 1
  51   21   58 1
  52   22   23 1
  53   22   24 1
  54   22   59 1
  55   23   60 1
  56   23   61 1
  57   24   62 1
  58   24   63 1
  59   25   33 1
  60   25   64 1
  61   26   27 ar
  62   26   65 1
  63   27   28 ar
  64   27   66 1
  65   28   29 ar
  66   28   32 1
  67   29   30 ar
  68   29   31 1
  69   30   67 1
  70   32   68 1
  71   32   69 1
  72   32   70 1
  73   33   34 2
  74   33   35 1
  75   35   71 1

#	End of record

