#	Name: ASD01882435
#	Creating user name:	WinNT
#	Creation time:	15. 06. 2019 19:44

#	Modifying user name:	WinNT
#	Modification time:	15. 06. 2019 19:44

#	Program:	/corina/corina34_cracker 3.40 0067  02.08.2006

@<TRIPOS>MOLECULE
ASD01882435
  57   61    0    0    0
SMALL
NO_CHARGES


@<TRIPOS>ATOM
   1 C1             0.6258     1.3716    -1.0754 C.2     
   2 C2             0.6019    -0.0315    -1.0024 C.2     
   3 C3             1.1510    -0.6520     0.0867 C.2     
   4 C4             1.7295     0.1255     1.1137 C.2     
   5 C5             1.7414     1.4697     1.0231 C.2     
   6 N6             1.1965     2.0980    -0.0586 N.pl3   
   7 N7             0.4564     3.4382    -1.5741 N.2     
   8 N8             0.1947     2.2436    -1.9740 N.2     
   9 C9             1.0647     3.4073    -0.4177 C.2     
  10 C10           -0.0209    -0.8427    -2.1093 C.3     
  11 F11           -1.3552    -1.1181    -1.7915 F       
  12 F12            0.0339    -0.1191    -3.3053 F       
  13 F13            0.6805    -2.0440    -2.2585 F       
  14 N14            1.1390    -2.0403     0.1817 N.pl3   
  15 C15            2.3919    -2.8101     0.1492 C.3     
  16 C16            2.4096    -3.7620     1.3499 C.3     
  17 N17            1.1834    -4.5709     1.3476 N.3     
  18 C18           -0.0099    -3.7301     1.5114 C.3     
  19 C19           -0.1264    -2.7764     0.3235 C.3     
  20 C20            1.2386    -5.6136     2.3809 C.3     
  21 C21           -0.1371    -6.2689     2.5183 C.3     
  22 C22           -0.0805    -7.3385     3.5783 C.ar    
  23 C23           -0.3562    -7.0217     4.8953 C.ar    
  24 C24           -0.3042    -8.0028     5.8677 C.ar    
  25 C25            0.0230    -9.3009     5.5230 C.ar    
  26 C26            0.2978    -9.6179     4.2058 C.ar    
  27 C27            0.2416    -8.6377     3.2328 C.ar    
  28 C28            1.5361     4.6002     0.3734 C.3     
  29 C29            2.9697     4.9474    -0.0329 C.3     
  30 C30            3.5911     6.2065     0.5750 C.3     
  31 C31            4.0567     4.8241     1.0367 C.3     
  32 H32            2.1639    -0.3593     1.9755 H       
  33 H33            2.1859     2.0553     1.8142 H       
  34 H34            2.4442    -3.3855    -0.7751 H       
  35 H35            3.2413    -2.1297     0.2088 H       
  36 H36            3.2779    -4.4175     1.2816 H       
  37 H37            2.4619    -3.1834     2.2721 H       
  38 H38           -0.8965    -4.3623     1.5603 H       
  39 H39            0.0761    -3.1518     2.4314 H       
  40 H40           -0.9411    -2.0737     0.4982 H       
  41 H41           -0.3208    -3.3485    -0.5837 H       
  42 H42            1.9734    -6.3672     2.0977 H       
  43 H43            1.5249    -5.1668     3.3330 H       
  44 H44           -0.8719    -5.5152     2.8014 H       
  45 H45           -0.4234    -6.7157     1.5662 H       
  46 H46           -0.6118    -6.0075     5.1646 H       
  47 H47           -0.5189    -7.7552     6.8967 H       
  48 H48            0.0643   -10.0673     6.2828 H       
  49 H49            0.5538   -10.6320     3.9366 H       
  50 H50            0.4527    -8.8861     2.2032 H       
  51 H51            0.8851     5.4507     0.1711 H       
  52 H52            1.5068     4.3652     1.4374 H       
  53 H53            3.2415     4.6968    -1.0583 H       
  54 H54            4.2719     6.7840    -0.0503 H       
  55 H55            2.9785     6.7875     1.2644 H       
  56 H56            3.7505     4.4957     2.0299 H       
  57 H57            5.0439     4.4922     0.7152 H       
@<TRIPOS>BOND
   1    1    2 1
   2    1    6 1
   3    1    8 2
   4    2    3 2
   5    2   10 1
   6    3    4 1
   7    3   14 1
   8    4    5 2
   9    4   32 1
  10    5    6 1
  11    5   33 1
  12    6    9 1
  13    7    8 1
  14    7    9 2
  15    9   28 1
  16   10   11 1
  17   10   12 1
  18   10   13 1
  19   14   15 1
  20   14   19 1
  21   15   16 1
  22   15   34 1
  23   15   35 1
  24   16   17 1
  25   16   36 1
  26   16   37 1
  27   17   18 1
  28   17   20 1
  29   18   19 1
  30   18   38 1
  31   18   39 1
  32   19   40 1
  33   19   41 1
  34   20   21 1
  35   20   42 1
  36   20   43 1
  37   21   22 1
  38   21   44 1
  39   21   45 1
  40   22   23 ar
  41   22   27 ar
  42   23   24 ar
  43   23   46 1
  44   24   25 ar
  45   24   47 1
  46   25   26 ar
  47   25   48 1
  48   26   27 ar
  49   26   49 1
  50   27   50 1
  51   28   29 1
  52   28   51 1
  53   28   52 1
  54   29   30 1
  55   29   31 1
  56   29   53 1
  57   30   31 1
  58   30   54 1
  59   30   55 1
  60   31   56 1
  61   31   57 1

#	End of record

