#	Name: ASD01901352
#	Creating user name:	WinNT
#	Creation time:	15. 06. 2019 19:53

#	Modifying user name:	WinNT
#	Modification time:	15. 06. 2019 19:53

#	Program:	/corina/corina34_cracker 3.40 0067  02.08.2006

@<TRIPOS>MOLECULE
ASD01901352
  38   41    0    0    0
SMALL
NO_CHARGES


@<TRIPOS>ATOM
   1 C1            -0.0168     1.3910     0.0097 C.ar    
   2 C2             1.1725     2.0954     0.0021 C.ar    
   3 C3             2.3801     1.4178    -0.0131 C.ar    
   4 C4             2.4023     0.0323    -0.0207 C.ar    
   5 C5             1.2204    -0.6796    -0.0132 C.ar    
   6 C6             0.0021    -0.0041     0.0020 C.ar    
   7 C7            -1.2716    -0.7659     0.0106 C.2     
   8 N8            -3.1803    -1.5355    -1.1466 N.2     
   9 C9            -2.0564    -0.8617    -1.1592 C.2     
  10 C10           -1.6985    -1.3894     1.1495 C.2     
  11 N11           -2.8735    -2.0810     1.1228 N.pl3   
  12 C12           -3.6100    -2.1457    -0.0319 C.2     
  13 C13           -3.5509    -2.7939     2.0751 C.2     
  14 C14           -4.6702    -3.2720     1.4911 C.2     
  15 N15           -4.6919    -2.8701     0.2169 N.2     
  16 C16           -5.7208    -4.1170     2.1644 C.3     
  17 O17           -5.3521    -4.3391     3.5271 O.3     
  18 C18           -6.1991    -5.0889     4.2812 C.ar    
  19 C19           -7.3576    -5.6044     3.7190 C.ar    
  20 C20           -5.9026    -5.3438     5.6120 C.ar    
  21 C21           -6.7639    -6.1063     6.3771 C.ar    
  22 C22           -7.9223    -6.6162     5.8159 C.ar    
  23 C23           -8.2171    -6.3666     4.4864 C.ar    
  24 F24           -1.1949     2.0520     0.0301 F       
  25 F25            3.5404     2.1098    -0.0209 F       
  26 F26           -8.7633    -7.3625     6.5650 F       
  27 H27            1.1599     3.1753     0.0077 H       
  28 H28            3.3467    -0.4914    -0.0329 H       
  29 H29            1.2397    -1.7595    -0.0196 H       
  30 H30           -1.7294    -0.3775    -2.0675 H       
  31 H31           -1.1143    -1.3355     2.0562 H       
  32 H32           -3.2471    -2.9452     3.1004 H       
  33 H33           -6.6805    -3.6015     2.1271 H       
  34 H34           -5.8022    -5.0741     1.6494 H       
  35 H35           -7.5877    -5.4098     2.6819 H       
  36 H36           -4.9987    -4.9467     6.0498 H       
  37 H37           -6.5333    -6.3049     7.4133 H       
  38 H38           -9.1192    -6.7681     4.0489 H       
@<TRIPOS>BOND
   1    1    6 ar
   2    1    2 ar
   3    1   24 1
   4    2    3 ar
   5    2   27 1
   6    3    4 ar
   7    3   25 1
   8    4    5 ar
   9    4   28 1
  10    5    6 ar
  11    5   29 1
  12    6    7 1
  13    7   10 2
  14    7    9 1
  15    8    9 2
  16    8   12 1
  17    9   30 1
  18   10   11 1
  19   10   31 1
  20   11   13 1
  21   11   12 1
  22   12   15 2
  23   13   14 2
  24   13   32 1
  25   14   15 1
  26   14   16 1
  27   16   17 1
  28   16   33 1
  29   16   34 1
  30   17   18 1
  31   18   20 ar
  32   18   19 ar
  33   19   23 ar
  34   19   35 1
  35   20   21 ar
  36   20   36 1
  37   21   22 ar
  38   21   37 1
  39   22   23 ar
  40   22   26 1
  41   23   38 1

#	End of record

