#	Name: ASD03091574
#	Creating user name:	WinNT
#	Creation time:	15. 06. 2019 20:31

#	Modifying user name:	WinNT
#	Modification time:	15. 06. 2019 20:31

#	Program:	/corina/corina34_cracker 3.40 0067  02.08.2006

@<TRIPOS>MOLECULE
ASD03091574
  15   15    0    0    0
SMALL
NO_CHARGES


@<TRIPOS>ATOM
   1 C1            -0.0178     1.4637     0.0101 C.2     
   2 C2             0.0021    -0.0041     0.0020 C.ar    
   3 C3            -1.2018    -0.7274     0.0096 C.ar    
   4 C4            -1.1694    -2.1143     0.0019 C.ar    
   5 C5             0.0419    -2.7789    -0.0127 C.ar    
   6 C6             1.2321    -2.0692    -0.0203 C.ar    
   7 C7             1.2211    -0.6921    -0.0191 C.ar    
   8 O8             1.0243     2.0844     0.0035 O.2     
   9 O9            -2.3898    -0.0735     0.0249 O.3     
  10 Br10          -2.7852    -3.0967     0.0121 Br      
  11 H11           -0.9604     1.9909     0.0174 H       
  12 H12            0.0612    -3.8587    -0.0179 H       
  13 H13            2.1733    -2.5988    -0.0313 H       
  14 H14            2.1515    -0.1438    -0.0296 H       
  15 H15           -2.7430     0.1212    -0.8540 H       
@<TRIPOS>BOND
   1    1    2 1
   2    1    8 2
   3    1   11 1
   4    2    3 ar
   5    2    7 ar
   6    3    4 ar
   7    3    9 1
   8    4    5 ar
   9    4   10 1
  10    5    6 ar
  11    5   12 1
  12    6    7 ar
  13    6   13 1
  14    7   14 1
  15    9   15 1

#	End of record

