#	Name: ASD01230519
#	Creating user name:	WinNT
#	Creation time:	15. 06. 2019 19:14

#	Modifying user name:	WinNT
#	Modification time:	15. 06. 2019 19:14

#	Program:	/corina/corina34_cracker 3.40 0067  02.08.2006

@<TRIPOS>MOLECULE
ASD01230519
  51   54    0    0    0
SMALL
NO_CHARGES


@<TRIPOS>ATOM
   1 S1             1.5480    -0.2335     0.4699 S.o2    
   2 N2             1.1369    -1.7198    -0.1097 N.am    
   3 C3             1.9216    -2.4821    -0.7614 C.2     
   4 N4             3.2083    -2.1561    -1.1076 N.pl3   
   5 C5             3.6459    -0.7677    -1.1982 C.3     
   6 C6             3.3130    -0.0432     0.1076 C.3     
   7 C7             1.4497    -3.8514    -1.2231 C.3     
   8 C8             2.0887    -4.1168    -2.5886 C.3     
   9 C9             3.6079    -4.1528    -2.4892 C.3     
  10 C10            4.1381    -3.2586    -1.3749 C.3     
  11 C11           -0.0519    -3.8605    -1.3494 C.ar    
  12 C12           -0.8027    -4.7425    -0.5942 C.ar    
  13 C13           -2.1793    -4.7528    -0.7080 C.ar    
  14 C14           -2.8087    -3.8767    -1.5808 C.ar    
  15 C15           -2.0530    -2.9923    -2.3372 C.ar    
  16 C16           -0.6769    -2.9828    -2.2160 C.ar    
  17 O17           -4.1627    -3.8852    -1.6950 O.3     
  18 C18           -4.8684    -4.6908    -0.8587 C.ar    
  19 C19           -5.2810    -4.2172     0.3786 C.ar    
  20 C20           -5.9987    -5.0381     1.2267 C.ar    
  21 C21           -6.3056    -6.3308     0.8438 C.ar    
  22 C22           -5.8956    -6.8052    -0.3885 C.ar    
  23 C23           -5.1826    -5.9866    -1.2428 C.ar    
  24 C24           -7.0878    -7.2244     1.7716 C.3     
  25 C25           -8.5840    -7.0601     1.4968 C.3     
  26 O26            0.7809     0.6690    -0.3151 O.2     
  27 O27            1.3381    -0.3377     1.8714 O.2     
  28 H28            4.7223    -0.7361    -1.3672 H       
  29 H29            3.1333    -0.2782    -2.0263 H       
  30 H30            3.5512     1.0156     0.0068 H       
  31 H31            3.8991    -0.4718     0.9206 H       
  32 H32            1.7674    -4.6128    -0.5108 H       
  33 H33            1.7330    -5.0742    -2.9693 H       
  34 H34            1.7947    -3.3272    -3.2800 H       
  35 H35            3.9251    -5.1783    -2.3000 H       
  36 H36            4.0316    -3.8234    -3.4379 H       
  37 H37            5.1039    -2.8497    -1.6716 H       
  38 H38            4.2629    -3.8506    -0.4682 H       
  39 H39           -0.3124    -5.4241     0.0850 H       
  40 H40           -2.7652    -5.4424    -0.1184 H       
  41 H41           -2.5404    -2.3095    -3.0172 H       
  42 H42           -0.0885    -2.2919    -2.8014 H       
  43 H43           -5.0410    -3.2078     0.6784 H       
  44 H44           -6.3201    -4.6700     2.1898 H       
  45 H45           -6.1363    -7.8154    -0.6850 H       
  46 H46           -4.8662    -6.3563    -2.2069 H       
  47 H47           -6.7997    -8.2623     1.6050 H       
  48 H48           -6.8759    -6.9498     2.8049 H       
  49 H49           -8.8721    -6.0222     1.6633 H       
  50 H50           -8.7959    -7.3347     0.4634 H       
  51 H51           -9.1497    -7.7064     2.1678 H       
@<TRIPOS>BOND
   1    1    2 am
   2    1    6 1
   3    1   26 2
   4    1   27 2
   5    2    3 2
   6    3    4 1
   7    3    7 1
   8    4    5 1
   9    4   10 1
  10    5    6 1
  11    5   28 1
  12    5   29 1
  13    6   30 1
  14    6   31 1
  15    7    8 1
  16    7   11 1
  17    7   32 1
  18    8    9 1
  19    8   33 1
  20    8   34 1
  21    9   10 1
  22    9   35 1
  23    9   36 1
  24   10   37 1
  25   10   38 1
  26   11   12 ar
  27   11   16 ar
  28   12   13 ar
  29   12   39 1
  30   13   14 ar
  31   13   40 1
  32   14   15 ar
  33   14   17 1
  34   15   16 ar
  35   15   41 1
  36   16   42 1
  37   17   18 1
  38   18   19 ar
  39   18   23 ar
  40   19   20 ar
  41   19   43 1
  42   20   21 ar
  43   20   44 1
  44   21   22 ar
  45   21   24 1
  46   22   23 ar
  47   22   45 1
  48   23   46 1
  49   24   25 1
  50   24   47 1
  51   24   48 1
  52   25   49 1
  53   25   50 1
  54   25   51 1

#	End of record

