#	Name: ASD02030530
#	Creating user name:	WinNT
#	Creation time:	15. 06. 2019 20:15

#	Modifying user name:	WinNT
#	Modification time:	15. 06. 2019 20:15

#	Program:	/corina/corina34_cracker 3.40 0067  02.08.2006

@<TRIPOS>MOLECULE
ASD02030530
  53   56    0    0    0
SMALL
NO_CHARGES


@<TRIPOS>ATOM
   1 N1            -0.3964     1.5084    -0.7472 N.am    
   2 C2            -0.5086     0.0434    -0.7816 C.3     
   3 C3            -1.3062    -0.4159     0.4453 C.3     
   4 N4            -2.5342     0.3866     0.5345 N.am    
   5 C5            -2.4219     1.8516     0.5688 C.3     
   6 C6            -1.6240     2.3107    -0.6524 C.3     
   7 C7             0.8110     2.1052    -0.7962 C.2     
   8 C8             2.0421     1.2890    -0.7339 C.2     
   9 N9             3.2699     1.7480    -0.6213 N.2     
  10 N10            2.1038    -0.0546    -0.7764 N.2     
  11 C11            3.3664    -0.3888    -0.6941 C.2     
  12 N12            4.0838     0.7494    -0.5975 N.pl3   
  13 O13            0.8878     3.3146    -0.8916 O.2     
  14 C14           -3.7416    -0.2101     0.5835 C.2     
  15 C15           -3.8384    -1.6923     0.5728 C.ar    
  16 O16           -4.7506     0.4641     0.6364 O.2     
  17 C17           -1.2623     3.7898    -0.5030 C.3     
  18 C18           -2.4600     2.1083    -1.9177 C.3     
  19 C19            5.4787     0.8319    -0.4899 C.ar    
  20 C20            6.0968     2.0712    -0.3970 C.ar    
  21 C21            7.4731     2.1492    -0.2905 C.ar    
  22 C22            8.2334     0.9931    -0.2770 C.ar    
  23 C23            7.6194    -0.2425    -0.3695 C.ar    
  24 C24            6.2446    -0.3264    -0.4703 C.ar    
  25 N25           -4.9381    -2.2644     0.1061 N.ar    
  26 C26           -5.0576    -3.5800     0.0820 C.ar    
  27 C27           -4.0130    -4.3627     0.5534 C.ar    
  28 C28           -2.8756    -3.7293     1.0352 C.ar    
  29 N29           -2.8207    -2.4095     1.0252 N.ar    
  30 C30           -6.3125    -4.2225    -0.4503 C.3     
  31 F31           -7.1596    -3.2352    -0.9650 F       
  32 Cl32           8.2478     3.6984    -0.1741 Cl      
  33 F33           -5.9795    -5.1264    -1.4647 F       
  34 F34           -6.9635    -4.9022     0.5848 F       
  35 H35           -1.0269    -0.2626    -1.6904 H       
  36 H36            0.4867    -0.4004    -0.7580 H       
  37 H37           -1.5647    -1.4696     0.3401 H       
  38 H38           -0.7085    -0.2713     1.3453 H       
  39 H39           -3.4172     2.2954     0.5452 H       
  40 H40           -1.9037     2.1576     1.4776 H       
  41 H41            3.7620    -1.3937    -0.6993 H       
  42 H42           -0.3993     3.8881     0.1556 H       
  43 H43           -1.0219     4.2057    -1.4814 H       
  44 H44           -2.1079     4.3294    -0.0766 H       
  45 H45           -3.3775     2.6921    -1.8443 H       
  46 H46           -1.8893     2.4362    -2.7866 H       
  47 H47           -2.7087     1.0523    -2.0238 H       
  48 H48            5.5035     2.9736    -0.4082 H       
  49 H49            9.3084     1.0559    -0.1945 H       
  50 H50            8.2154    -1.1431    -0.3591 H       
  51 H51            5.7661    -1.2920    -0.5421 H       
  52 H52           -4.0836    -5.4404     0.5459 H       
  53 H53           -2.0444    -4.3084     1.4098 H       
@<TRIPOS>BOND
   1    1    2 1
   2    1    7 am
   3    1    6 1
   4    2    3 1
   5    2   35 1
   6    2   36 1
   7    3    4 1
   8    3   37 1
   9    3   38 1
  10    4    5 1
  11    4   14 am
  12    5    6 1
  13    5   39 1
  14    5   40 1
  15    6   17 1
  16    6   18 1
  17    7    8 1
  18    7   13 2
  19    8    9 2
  20    8   10 1
  21    9   12 1
  22   10   11 2
  23   11   12 1
  24   11   41 1
  25   12   19 1
  26   14   15 1
  27   14   16 2
  28   15   25 ar
  29   15   29 ar
  30   17   42 1
  31   17   43 1
  32   17   44 1
  33   18   45 1
  34   18   46 1
  35   18   47 1
  36   19   20 ar
  37   19   24 ar
  38   20   21 ar
  39   20   48 1
  40   21   22 ar
  41   21   32 1
  42   22   23 ar
  43   22   49 1
  44   23   24 ar
  45   23   50 1
  46   24   51 1
  47   25   26 ar
  48   26   27 ar
  49   26   30 1
  50   27   28 ar
  51   27   52 1
  52   28   29 ar
  53   28   53 1
  54   30   31 1
  55   30   33 1
  56   30   34 1

#	End of record

