#	Name: ASD03570002
#	Creating user name:	WinNT
#	Creation time:	15. 06. 2019 20:43

#	Modifying user name:	WinNT
#	Modification time:	15. 06. 2019 20:43

#	Program:	/corina/corina34_cracker 3.40 0067  02.08.2006

@<TRIPOS>MOLECULE
ASD03570002
  25   27    0    0    0
SMALL
NO_CHARGES


@<TRIPOS>ATOM
   1 C1            -0.0167     1.3777     0.0096 C.ar    
   2 C2             0.0021    -0.0041     0.0020 C.ar    
   3 C3             1.2066    -0.6907    -0.0132 C.ar    
   4 C4             2.3990     0.0145    -0.0209 C.ar    
   5 C5             2.3799     1.4246    -0.0131 C.ar    
   6 C6             1.1688     2.0969     0.0022 C.ar    
   7 C7             3.8258    -0.3703    -0.0366 C.2     
   8 N8             4.5717     0.7492    -0.0377 N.am    
   9 C9             3.7958     1.8480    -0.0244 C.2     
  10 C10            5.9683     0.7682    -0.0515 C.ar    
  11 N11            6.6091     1.9215     0.0488 N.ar    
  12 C12            7.9268     1.9842     0.0400 C.ar    
  13 C13            8.6893     0.8388    -0.0755 C.ar    
  14 C14            8.0552    -0.3915    -0.1830 C.ar    
  15 C15            6.6719    -0.4250    -0.1646 C.ar    
  16 O16            4.1923     2.9958    -0.0220 O.2     
  17 O17            4.2534    -1.5069    -0.0468 O.2     
  18 H18           -0.9613     1.9011     0.0169 H       
  19 H19           -0.9280    -0.5530     0.0083 H       
  20 H20            1.2152    -1.7706    -0.0187 H       
  21 H21            1.1480     3.1767     0.0078 H       
  22 H22            8.4155     2.9437     0.1240 H       
  23 H23            9.7676     0.8994    -0.0825 H       
  24 H24            8.6285    -1.3022    -0.2745 H       
  25 H25            6.1461    -1.3649    -0.2458 H       
@<TRIPOS>BOND
   1    1    2 ar
   2    1    6 ar
   3    1   18 1
   4    2    3 ar
   5    2   19 1
   6    3    4 ar
   7    3   20 1
   8    4    5 ar
   9    4    7 1
  10    5    6 ar
  11    5    9 1
  12    6   21 1
  13    7    8 am
  14    7   17 2
  15    8    9 am
  16    8   10 1
  17    9   16 2
  18   10   11 ar
  19   10   15 ar
  20   11   12 ar
  21   12   13 ar
  22   12   22 1
  23   13   14 ar
  24   13   23 1
  25   14   15 ar
  26   14   24 1
  27   15   25 1

#	End of record

