#	Name: ASD01813390
#	Creating user name:	WinNT
#	Creation time:	15. 06. 2019 19:30

#	Modifying user name:	WinNT
#	Modification time:	15. 06. 2019 19:30

#	Program:	/corina/corina34_cracker 3.40 0067  02.08.2006

@<TRIPOS>MOLECULE
ASD01813390
  50   54    0    0    0
SMALL
NO_CHARGES


@<TRIPOS>ATOM
   1 C1            -0.0169     1.3972     0.0097 C.2     
   2 C2             0.0021    -0.0041     0.0020 C.2     
   3 C3             1.1986    -0.6593    -0.0129 C.2     
   4 C4             2.3918     0.0821    -0.0204 C.2     
   5 N5             2.3437     1.4497    -0.0122 N.am    
   6 C6             1.1421     2.0937     0.0024 C.2     
   7 C7             3.6227    -0.5889    -0.0356 C.2     
   8 C8             4.7877     0.1218    -0.0425 C.2     
   9 C9             4.7345     1.5280    -0.0346 C.2     
  10 C10            3.4812     2.1736    -0.0189 C.2     
  11 O11            3.4258     3.3917    -0.0123 O.2     
  12 C12            5.9703     2.3140    -0.0413 C.2     
  13 O13            5.9124     3.6618    -0.0337 O.3     
  14 O14            7.0487     1.7516    -0.0537 O.2     
  15 C15            3.6593    -2.0954    -0.0439 C.3     
  16 C16            3.7837    -2.5946    -1.4848 C.3     
  17 N17            3.8194    -4.0631    -1.4929 N.3     
  18 C18            2.5374    -4.6244    -1.0374 C.3     
  19 C19            2.6003    -6.1281    -1.1650 C.2     
  20 C20            3.5273    -6.7656    -1.9158 C.2     
  21 C21            4.5933    -6.0495    -2.7062 C.3     
  22 C22            4.1873    -4.5737    -2.8210 C.3     
  23 N23            1.7738    -7.0447    -0.5743 N.pl3   
  24 C24            2.1526    -8.3070    -0.9330 C.ar    
  25 C25            3.2749    -8.1839    -1.7932 C.ar    
  26 C26            1.6439    -9.5624    -0.6068 C.ar    
  27 C27            2.2823   -10.6602    -1.1571 C.ar    
  28 C28            3.3778   -10.5346    -1.9956 C.ar    
  29 C29            3.9005    -9.3113    -2.3346 C.ar    
  30 H30           -0.9605     1.9226     0.0170 H       
  31 H31           -0.9233    -0.5609     0.0082 H       
  32 H32            1.2282    -1.7389    -0.0187 H       
  33 H33            1.1156     3.1733     0.0087 H       
  34 H34            5.7393    -0.3889    -0.0536 H       
  35 H35            6.7544     4.1373    -0.0385 H       
  36 H36            4.5153    -2.4412     0.5356 H       
  37 H37            2.7412    -2.4836     0.3971 H       
  38 H38            2.9277    -2.2488    -2.0643 H       
  39 H39            4.7018    -2.2064    -1.9259 H       
  40 H40            2.3679    -4.3521     0.0044 H       
  41 H41            1.7277    -4.2379    -1.6564 H       
  42 H42            5.5505    -6.1295    -2.1908 H       
  43 H43            4.6719    -6.4884    -3.7009 H       
  44 H44            3.3352    -4.4825    -3.4945 H       
  45 H45            5.0242    -3.9960    -3.2133 H       
  46 H46            1.0308    -6.8303     0.0114 H       
  47 H47            0.7903    -9.6738     0.0454 H       
  48 H48            1.9139   -11.6485    -0.9247 H       
  49 H49            3.8356   -11.4276    -2.3950 H       
  50 H50            4.7552    -9.2236    -2.9890 H       
@<TRIPOS>BOND
   1    1    2 1
   2    1    6 2
   3    1   30 1
   4    2    3 2
   5    2   31 1
   6    3    4 1
   7    3   32 1
   8    4    5 1
   9    4    7 2
  10    5    6 1
  11    5   10 am
  12    6   33 1
  13    7    8 1
  14    7   15 1
  15    8    9 2
  16    8   34 1
  17    9   10 1
  18    9   12 1
  19   10   11 2
  20   12   13 1
  21   12   14 2
  22   13   35 1
  23   15   16 1
  24   15   36 1
  25   15   37 1
  26   16   17 1
  27   16   38 1
  28   16   39 1
  29   17   18 1
  30   17   22 1
  31   18   19 1
  32   18   40 1
  33   18   41 1
  34   19   20 2
  35   19   23 1
  36   20   21 1
  37   20   25 1
  38   21   22 1
  39   21   42 1
  40   21   43 1
  41   22   44 1
  42   22   45 1
  43   23   24 1
  44   23   46 1
  45   24   25 ar
  46   24   26 ar
  47   25   29 ar
  48   26   27 ar
  49   26   47 1
  50   27   28 ar
  51   27   48 1
  52   28   29 ar
  53   28   49 1
  54   29   50 1

#	End of record

