#	Name: ASD01812501
#	Creating user name:	WinNT
#	Creation time:	15. 06. 2019 19:28

#	Modifying user name:	WinNT
#	Modification time:	15. 06. 2019 19:28

#	Program:	/corina/corina34_cracker 3.40 0067  02.08.2006

@<TRIPOS>MOLECULE
ASD01812501
  52   56    0    0    0
SMALL
NO_CHARGES


@<TRIPOS>ATOM
   1 C1            -0.0177     1.4558     0.0100 C.ar    
   2 C2             0.0021    -0.0041     0.0020 C.ar    
   3 C3            -1.2308    -0.7011     0.0105 C.ar    
   4 C4            -2.4445     0.0179     0.0269 C.ar    
   5 C5            -2.4563     1.3721     0.0343 C.ar    
   6 C6            -1.2628     2.1110     0.0315 C.ar    
   7 C7            -1.2222    -2.1043     0.0029 C.ar    
   8 C8            -0.0349    -2.7735    -0.0125 C.ar    
   9 C9             1.1743    -2.0857    -0.0203 C.ar    
  10 C10            1.2025    -0.7215    -0.0133 C.ar    
  11 N11            1.1115     2.1837     0.0032 N.2     
  12 C12            1.0871     3.4846     0.0109 C.2     
  13 N13           -0.0647     4.2046     0.0267 N.am    
  14 C14           -1.2647     3.5791     0.0393 C.2     
  15 C15           -3.7504    -0.7341     0.0359 C.3     
  16 C16           -4.1096    -1.1001     1.4529 C.ar    
  17 C17           -3.6800    -2.2952     1.9953 C.ar    
  18 C18           -4.8710    -0.2372     2.2287 C.ar    
  19 C19           -5.1783    -0.6122     3.5252 C.ar    
  20 C20           -4.7173    -1.8320     4.0031 C.ar    
  21 N21           -3.9894    -2.6253     3.2346 N.ar    
  22 O22           -2.3063     4.2099     0.0577 O.2     
  23 O23           -5.0114    -2.2109     5.2722 O.3     
  24 C24           -4.5083    -3.4766     5.7045 C.3     
  25 C25           -0.0099     5.6040     0.0351 C.ar    
  26 C26            0.0540     7.6872    -1.1506 C.ar    
  27 C27           -0.0002     6.3070    -1.1622 C.ar    
  28 C28            0.0290     6.2917     1.2411 C.ar    
  29 C29            0.0831     7.6715     1.2460 C.ar    
  30 C30            0.0984     8.3687     0.0516 C.ar    
  31 C31            0.0118     5.5329     2.5430 C.3     
  32 H32           -3.4020     1.8934     0.0465 H       
  33 H33           -2.1530    -2.6520     0.0096 H       
  34 H34           -0.0327    -3.8535    -0.0183 H       
  35 H35            2.1022    -2.6382    -0.0318 H       
  36 H36            2.1472    -0.1983    -0.0202 H       
  37 H37            2.0268     4.0170     0.0047 H       
  38 H38           -4.5344    -0.1058    -0.3870 H       
  39 H39           -3.6513    -1.6415    -0.5598 H       
  40 H40           -3.0836    -2.9682     1.3973 H       
  41 H41           -5.2154     0.7056     1.8301 H       
  42 H42           -5.7685     0.0353     4.1568 H       
  43 H43           -3.4199    -3.4747     5.6442 H       
  44 H44           -4.8147    -3.6567     6.7349 H       
  45 H45           -4.9063    -4.2637     5.0642 H       
  46 H46            0.0616     8.2346    -2.0816 H       
  47 H47           -0.0345     5.7753    -2.1016 H       
  48 H48            0.1130     8.2069     2.1835 H       
  49 H49            0.1414     9.4478     0.0581 H       
  50 H50            1.0345     5.3094     2.8468 H       
  51 H51           -0.4710     6.1383     3.3101 H       
  52 H52           -0.5404     4.6020     2.4137 H       
@<TRIPOS>BOND
   1    1    2 ar
   2    1   11 1
   3    1    6 ar
   4    2   10 ar
   5    2    3 ar
   6    3    4 ar
   7    3    7 ar
   8    4    5 ar
   9    4   15 1
  10    5    6 ar
  11    5   32 1
  12    6   14 1
  13    7    8 ar
  14    7   33 1
  15    8    9 ar
  16    8   34 1
  17    9   10 ar
  18    9   35 1
  19   10   36 1
  20   11   12 2
  21   12   13 1
  22   12   37 1
  23   13   14 am
  24   13   25 1
  25   14   22 2
  26   15   16 1
  27   15   38 1
  28   15   39 1
  29   16   18 ar
  30   16   17 ar
  31   17   21 ar
  32   17   40 1
  33   18   19 ar
  34   18   41 1
  35   19   20 ar
  36   19   42 1
  37   20   21 ar
  38   20   23 1
  39   23   24 1
  40   24   43 1
  41   24   44 1
  42   24   45 1
  43   25   28 ar
  44   25   27 ar
  45   26   27 ar
  46   26   30 ar
  47   26   46 1
  48   27   47 1
  49   28   29 ar
  50   28   31 1
  51   29   30 ar
  52   29   48 1
  53   30   49 1
  54   31   50 1
  55   31   51 1
  56   31   52 1

#	End of record

