#	Name: ASD08170415
#	Creating user name:	WinNT
#	Creation time:	15. 06. 2019 21:17

#	Modifying user name:	WinNT
#	Modification time:	15. 06. 2019 21:17

#	Program:	/corina/corina34_cracker 3.40 0067  02.08.2006

@<TRIPOS>MOLECULE
ASD08170415
  57   58    0    0    0
SMALL
NO_CHARGES


@<TRIPOS>ATOM
   1 N1            -0.0155     1.2947     0.0092 N.2     
   2 C2             0.0021    -0.0041     0.0020 C.2     
   3 S3             1.6320    -0.5310    -0.0164 S.3     
   4 C4             2.1557     1.1534    -0.0123 C.2     
   5 N5             1.0945     1.8960     0.0018 N.2     
   6 C6             7.9705     3.1008     4.7955 C.2     
   7 S7             7.7406     4.5190     5.8189 S.3     
   8 C8             8.3761     3.6409     7.1454 C.2     
   9 N9             8.6858     2.4453     6.7432 N.2     
  10 N10            8.4731     2.1610     5.5316 N.2     
  11 C11            3.5816     1.6410    -0.0229 C.3     
  12 C12            4.0775     1.7984     1.4160 C.3     
  13 S13            5.7939     2.3852     1.4033 S.3     
  14 C14            6.1962     2.5079     3.1678 C.3     
  15 C15            7.6363     2.9989     3.3296 C.3     
  16 N16           -1.1168    -0.8300     0.0087 N.am    
  17 C17           -2.3521    -0.2911     0.0233 C.2     
  18 O18           -2.4879     0.9140     0.0307 O.2     
  19 C19           -7.3293    -0.3794     0.0709 C.3     
  20 C20           -6.0624    -1.2371     0.0544 C.3     
  21 C21           -4.8314    -0.3284     0.0471 C.3     
  22 C22           -3.5646    -1.1861     0.0305 C.3     
  23 N23            8.5346     4.1275     8.4385 N.am    
  24 C24            9.0489     3.3340     9.3989 C.2     
  25 O25            9.3735     2.1955     9.1354 O.2     
  26 C26           10.5926     2.2095    13.9962 C.3     
  27 C27            9.9938     3.3032    13.1095 C.3     
  28 C28            9.8195     2.7678    11.6868 C.3     
  29 C29            9.2207     3.8614    10.8001 C.3     
  30 H30            4.2086     0.9191    -0.5463 H       
  31 H31            3.6328     2.6033    -0.5321 H       
  32 H32            3.4505     2.5202     1.9394 H       
  33 H33            4.0263     0.8360     1.9252 H       
  34 H34            5.5163     3.2120     3.6474 H       
  35 H35            6.0920     1.5278     3.6332 H       
  36 H36            7.7405     3.9790     2.8642 H       
  37 H37            8.3162     2.2947     2.8500 H       
  38 H38           -1.0082    -1.7939     0.0028 H       
  39 H39           -7.3335     0.2453     0.9642 H       
  40 H40           -7.3507     0.2542    -0.8157 H       
  41 H41           -8.2062    -1.0267     0.0762 H       
  42 H42           -6.0410    -1.8707     0.9411 H       
  43 H43           -6.0582    -1.8618    -0.8388 H       
  44 H44           -4.8528     0.3052    -0.8396 H       
  45 H45           -4.8357     0.2963     0.9403 H       
  46 H46           -3.5603    -1.8108    -0.8627 H       
  47 H47           -3.5432    -1.8197     0.9172 H       
  48 H48            8.2750     5.0381     8.6493 H       
  49 H49           11.5627     1.9104    13.5991 H       
  50 H50           10.7169     2.5910    15.0097 H       
  51 H51            9.9250     1.3481    14.0115 H       
  52 H52            9.0238     3.6023    13.5065 H       
  53 H53           10.6615     4.1646    13.0942 H       
  54 H54           10.7895     2.4686    11.2898 H       
  55 H55            9.1518     1.9063    11.7021 H       
  56 H56            9.8883     4.7229    10.7848 H       
  57 H57            8.2506     4.1605    11.1972 H       
@<TRIPOS>BOND
   1    1    2 2
   2    1    5 1
   3    2    3 1
   4    2   16 1
   5    3    4 1
   6    4    5 2
   7    4   11 1
   8    6    7 1
   9    6   15 1
  10    6   10 2
  11    7    8 1
  12    8    9 2
  13    8   23 1
  14    9   10 1
  15   11   12 1
  16   11   30 1
  17   11   31 1
  18   12   13 1
  19   12   32 1
  20   12   33 1
  21   13   14 1
  22   14   15 1
  23   14   34 1
  24   14   35 1
  25   15   36 1
  26   15   37 1
  27   16   17 am
  28   16   38 1
  29   17   18 2
  30   17   22 1
  31   19   20 1
  32   19   39 1
  33   19   40 1
  34   19   41 1
  35   20   21 1
  36   20   42 1
  37   20   43 1
  38   21   22 1
  39   21   44 1
  40   21   45 1
  41   22   46 1
  42   22   47 1
  43   23   24 am
  44   23   48 1
  45   24   25 2
  46   24   29 1
  47   26   27 1
  48   26   49 1
  49   26   50 1
  50   26   51 1
  51   27   28 1
  52   27   52 1
  53   27   53 1
  54   28   29 1
  55   28   54 1
  56   28   55 1
  57   29   56 1
  58   29   57 1

#	End of record

