#	Name: ASD03331257
#	Creating user name:	WinNT
#	Creation time:	15. 06. 2019 20:38

#	Modifying user name:	WinNT
#	Modification time:	15. 06. 2019 20:38

#	Program:	/corina/corina34_cracker 3.40 0067  02.08.2006

@<TRIPOS>MOLECULE
ASD03331257
  60   63    0    0    0
SMALL
NO_CHARGES


@<TRIPOS>ATOM
   1 N1            -0.1948     1.4018     0.4754 N.am    
   2 C2            -0.0923     0.0718     1.0949 C.3     
   3 C3             0.5134    -0.8960     0.0728 C.3     
   4 N4             1.7796    -0.3448    -0.4280 N.3     
   5 C5             1.5645     0.9207    -1.1422 C.3     
   6 C6             1.0018     1.9629    -0.1699 C.3     
   7 C7            -1.3560     2.0858     0.4936 C.2     
   8 O8            -2.3609     1.5659     0.9389 O.2     
   9 N9            -1.4032     3.3460     0.0183 N.am    
  10 C10           -2.6332     4.0024    -0.1032 C.ar    
  11 C11           -2.7114     5.3753     0.0903 C.ar    
  12 C12           -3.9267     6.0202    -0.0308 C.ar    
  13 C13           -5.0649     5.3002    -0.3444 C.ar    
  14 C14           -4.9904     3.9330    -0.5377 C.ar    
  15 C15           -3.7771     3.2830    -0.4232 C.ar    
  16 C16            2.4772    -1.3178    -1.2793 C.3     
  17 C17            3.6355    -0.6431    -1.9680 C.ar    
  18 C18            4.8804    -0.6240    -1.3670 C.ar    
  19 C19            5.9455    -0.0062    -1.9966 C.ar    
  20 C20            5.7679     0.5936    -3.2280 C.ar    
  21 C21            4.5193     0.5758    -3.8335 C.ar    
  22 C22            3.4537    -0.0493    -3.2021 C.ar    
  23 O23            4.3419     1.1655    -5.0448 O.3     
  24 C24            5.4351     1.6586    -5.6794 C.ar    
  25 C25            6.3149     0.7925    -6.3189 C.ar    
  26 C26            5.6692     3.0291    -5.6935 C.ar    
  27 C27            6.7768     3.5335    -6.3371 C.ar    
  28 C28            7.6668     2.6657    -6.9767 C.ar    
  29 C29            7.4251     1.2888    -6.9644 C.ar    
  30 C30            8.8544     3.2016    -7.6674 C.2     
  31 O31            9.7111     2.3635    -8.2833 O.3     
  32 O32            9.0604     4.3990    -7.6810 O.2     
  33 C33           10.8584     2.9610    -8.9428 C.3     
  34 H34            0.5503     0.1257     1.9737 H       
  35 H35           -1.0845    -0.2749     1.3841 H       
  36 H36            0.6989    -1.8588     0.5490 H       
  37 H37           -0.1796    -1.0282    -0.7581 H       
  38 H38            2.5122     1.2754    -1.5473 H       
  39 H39            0.8568     0.7632    -1.9562 H       
  40 H40            0.7331     2.8666    -0.7170 H       
  41 H41            1.7496     2.1986     0.5872 H       
  42 H42           -0.5847     3.7981    -0.2396 H       
  43 H43           -1.8229     5.9381     0.3356 H       
  44 H44           -3.9882     7.0878     0.1199 H       
  45 H45           -6.0141     5.8067    -0.4382 H       
  46 H46           -5.8811     3.3735    -0.7825 H       
  47 H47           -3.7188     2.2159    -0.5787 H       
  48 H48            2.8478    -2.1383    -0.6648 H       
  49 H49            1.7865    -1.7071    -2.0272 H       
  50 H50            5.0212    -1.0921    -0.4040 H       
  51 H51            6.9168     0.0076    -1.5247 H       
  52 H52            6.5999     1.0762    -3.7190 H       
  53 H53            2.4810    -0.0645    -3.6712 H       
  54 H54            6.1275    -0.2710    -6.3088 H       
  55 H55            4.9812     3.6988    -5.1992 H       
  56 H56            6.9576     4.5982    -6.3482 H       
  57 H57            8.1102     0.6150    -7.4573 H       
  58 H58           11.4650     2.1776    -9.3972 H       
  59 H59           10.5156     3.6493    -9.7154 H       
  60 H60           11.4558     3.5047    -8.2109 H       
@<TRIPOS>BOND
   1    1    2 1
   2    1    6 1
   3    1    7 am
   4    2    3 1
   5    2   34 1
   6    2   35 1
   7    3    4 1
   8    3   36 1
   9    3   37 1
  10    4    5 1
  11    4   16 1
  12    5    6 1
  13    5   38 1
  14    5   39 1
  15    6   40 1
  16    6   41 1
  17    7    8 2
  18    7    9 am
  19    9   10 1
  20    9   42 1
  21   10   11 ar
  22   10   15 ar
  23   11   12 ar
  24   11   43 1
  25   12   13 ar
  26   12   44 1
  27   13   14 ar
  28   13   45 1
  29   14   15 ar
  30   14   46 1
  31   15   47 1
  32   16   17 1
  33   16   48 1
  34   16   49 1
  35   17   18 ar
  36   17   22 ar
  37   18   19 ar
  38   18   50 1
  39   19   20 ar
  40   19   51 1
  41   20   21 ar
  42   20   52 1
  43   21   22 ar
  44   21   23 1
  45   22   53 1
  46   23   24 1
  47   24   25 ar
  48   24   26 ar
  49   25   29 ar
  50   25   54 1
  51   26   27 ar
  52   26   55 1
  53   27   28 ar
  54   27   56 1
  55   28   29 ar
  56   28   30 1
  57   29   57 1
  58   30   31 1
  59   30   32 2
  60   31   33 1
  61   33   58 1
  62   33   59 1
  63   33   60 1

#	End of record

