#	Name: ASD00100052
#	Creating user name:	WinNT
#	Creation time:	15. 06. 2019 18:30

#	Modifying user name:	WinNT
#	Modification time:	15. 06. 2019 18:30

#	Program:	/corina/corina34_cracker 3.40 0067  02.08.2006

@<TRIPOS>MOLECULE
ASD00100052
  66   69    0    0    0
SMALL
NO_CHARGES


@<TRIPOS>ATOM
   1 C1            -0.0089     1.4661     0.0850 C.2     
   2 C2             0.0039    -0.0032     0.0147 C.2     
   3 C3             1.1574    -0.6528    -0.1129 C.2     
   4 C4             2.4326     0.1151    -0.3478 C.3     
   5 O5             1.0387     2.0815     0.1363 O.2     
   6 N6            -1.1815     2.1304     0.0869 N.am    
   7 C7            -1.1943     3.5937     0.1569 C.3     
   8 C8            -2.4900     4.1226    -0.4613 C.3     
   9 C9            -2.5034     5.6508    -0.3882 C.3     
  10 C10           -2.4188     6.0922     1.0743 C.3     
  11 C11           -1.1231     5.5633     1.6926 C.3     
  12 C12           -1.1098     4.0351     1.6195 C.3     
  13 C13           -2.4322     7.6203     1.1474 C.3     
  14 C14           -2.4734     8.0605     2.6122 C.3     
  15 N15           -2.4862     9.5278     2.6824 N.3     
  16 C16           -2.7633     9.9868     4.0495 C.3     
  17 C17           -2.9130    11.5098     4.0571 C.3     
  18 C18           -1.6219    12.1474     3.5364 C.3     
  19 C19           -1.3304    11.6158     2.1304 C.3     
  20 C20           -1.2265    10.0897     2.1786 C.3     
  21 O21           -2.5337    15.6515     2.9787 O.3     
  22 C22           -2.6904    14.3317     2.7757 C.2     
  23 C23           -1.7847    13.6447     3.4850 C.2     
  24 C24           -0.9834    14.6436     4.2024 C.ar    
  25 C25           -1.5169    15.8896     3.8316 C.ar    
  26 C26            0.0918    14.5776     5.0869 C.ar    
  27 C27            0.6275    15.7408     5.5947 C.ar    
  28 C28            0.1014    16.9711     5.2291 C.ar    
  29 C29           -0.9619    17.0500     4.3551 C.ar    
  30 C30            1.1891    -2.1568    -0.0225 C.3     
  31 H31           -0.9234    -0.5544     0.0667 H       
  32 H32            2.8359     0.4506     0.6076 H       
  33 H33            3.1590    -0.5297    -0.8425 H       
  34 H34            2.2252     0.9796    -0.9784 H       
  35 H35           -2.0171     1.6397     0.0420 H       
  36 H36           -0.3409     3.9912    -0.3924 H       
  37 H37           -2.5503     3.8082    -1.5032 H       
  38 H38           -3.3434     3.7251     0.0881 H       
  39 H39           -1.6500     6.0483    -0.9376 H       
  40 H40           -3.4265     6.0276    -0.8286 H       
  41 H41           -3.2722     5.6947     1.6237 H       
  42 H42           -0.2697     5.9608     1.1432 H       
  43 H43           -1.0629     5.8777     2.7345 H       
  44 H44           -1.9632     3.6376     2.1688 H       
  45 H45           -0.1867     3.6583     2.0599 H       
  46 H46           -1.5325     8.0146     0.6748 H       
  47 H47           -3.3118     8.0013     0.6287 H       
  48 H48           -3.3731     7.6663     3.0848 H       
  49 H49           -1.5937     7.6796     3.1310 H       
  50 H50           -3.6861     9.5294     4.4062 H       
  51 H51           -1.9395     9.6996     4.7030 H       
  52 H52           -3.7454    11.7969     3.4146 H       
  53 H53           -3.1032    11.8517     5.0745 H       
  54 H54           -0.7962    11.8924     4.2007 H       
  55 H55           -2.1379    11.9045     1.4575 H       
  56 H56           -0.3899    12.0334     1.7712 H       
  57 H57           -0.4100     9.8021     2.8408 H       
  58 H58           -1.0332     9.7070     1.1765 H       
  59 H59           -3.4379    13.8894     2.1339 H       
  60 H60            0.5021    13.6204     5.3727 H       
  61 H61            1.4605    15.6945     6.2807 H       
  62 H62            0.5290    17.8766     5.6335 H       
  63 H63           -1.3629    18.0137     4.0777 H       
  64 H64            0.1801    -2.5319     0.1486 H       
  65 H65            1.5767    -2.5686    -0.9544 H       
  66 H66            1.8336    -2.4576     0.8034 H       
@<TRIPOS>BOND
   1    1    2 1
   2    1    5 2
   3    1    6 am
   4    2    3 2
   5    2   31 1
   6    3    4 1
   7    3   30 1
   8    4   32 1
   9    4   33 1
  10    4   34 1
  11    6    7 1
  12    6   35 1
  13    7    8 1
  14    7   12 1
  15    7   36 1
  16    8    9 1
  17    8   37 1
  18    8   38 1
  19    9   10 1
  20    9   39 1
  21    9   40 1
  22   10   11 1
  23   10   13 1
  24   10   41 1
  25   11   12 1
  26   11   42 1
  27   11   43 1
  28   12   44 1
  29   12   45 1
  30   13   14 1
  31   13   46 1
  32   13   47 1
  33   14   15 1
  34   14   48 1
  35   14   49 1
  36   15   16 1
  37   15   20 1
  38   16   17 1
  39   16   50 1
  40   16   51 1
  41   17   18 1
  42   17   52 1
  43   17   53 1
  44   18   19 1
  45   18   23 1
  46   18   54 1
  47   19   20 1
  48   19   55 1
  49   19   56 1
  50   20   57 1
  51   20   58 1
  52   21   22 1
  53   21   25 1
  54   22   23 2
  55   22   59 1
  56   23   24 1
  57   24   25 ar
  58   24   26 ar
  59   25   29 ar
  60   26   27 ar
  61   26   60 1
  62   27   28 ar
  63   27   61 1
  64   28   29 ar
  65   28   62 1
  66   29   63 1
  67   30   64 1
  68   30   65 1
  69   30   66 1

#	End of record

