#	Name: ASD01916024
#	Creating user name:	WinNT
#	Creation time:	15. 06. 2019 20:06

#	Modifying user name:	WinNT
#	Modification time:	15. 06. 2019 20:06

#	Program:	/corina/corina34_cracker 3.40 0067  02.08.2006

@<TRIPOS>MOLECULE
ASD01916024
  42   43    0    0    0
SMALL
NO_CHARGES


@<TRIPOS>ATOM
   1 C1            -0.0716     1.5656    -0.0936 C.ar    
   2 C2            -0.0017     0.1665    -0.0496 C.ar    
   3 C3            -1.1845    -0.5490    -0.0084 C.ar    
   4 C4            -2.3990     0.1413    -0.0120 C.ar    
   5 C5            -3.6683    -0.6154     0.0324 C.2     
   6 N6            -4.8399     0.0402     0.1509 N.am    
   7 O7            -3.6553    -1.8289    -0.0381 O.2     
   8 C8             1.1247     2.3514    -0.1372 C.1     
   9 C9             2.1055     2.9957    -0.1730 C.1     
  10 C10            3.3018     3.7815    -0.2167 C.ar    
  11 C11            3.2246     5.1764    -0.2604 C.ar    
  12 C12            5.7002     3.9211    -0.2516 C.ar    
  13 C13            4.3810     5.9265    -0.3018 C.ar    
  14 N14           -2.4284     1.4693    -0.0543 N.ar    
  15 C15           -1.3293     2.1846    -0.1002 C.ar    
  16 C16            4.5525     3.1576    -0.2098 C.ar    
  17 C17            5.6157     5.3015    -0.3006 C.ar    
  18 C18           -4.8498     1.4887     0.3699 C.3     
  19 C19           -5.8142    -2.1938    -0.0522 C.3     
  20 C20           -6.1034    -0.6957     0.0608 C.3     
  21 C21           -6.9385    -0.4307     1.3151 C.3     
  22 C22           -6.8773    -0.2310    -1.1746 C.3     
  23 Cl23          -1.1603    -2.2840     0.0466 Cl      
  24 H24            0.9520    -0.3402    -0.0482 H       
  25 H25            2.2617     5.6655    -0.2622 H       
  26 H26            6.6673     3.4403    -0.2509 H       
  27 H27            4.3230     7.0045    -0.3357 H       
  28 H28           -1.3942     3.2621    -0.1337 H       
  29 H29            4.6199     2.0804    -0.1716 H       
  30 H30            6.5180     5.8942    -0.3327 H       
  31 H31           -4.7656     2.0016    -0.5882 H       
  32 H32           -5.7824     1.7764     0.8552 H       
  33 H33           -4.0089     1.7659     1.0055 H       
  34 H34           -5.2629    -2.5248     0.8279 H       
  35 H35           -6.7543    -2.7413    -0.1193 H       
  36 H36           -5.2193    -2.3826    -0.9458 H       
  37 H37           -6.3872    -0.7617     2.1953 H       
  38 H38           -7.1446     0.6366     1.3957 H       
  39 H39           -7.8786    -0.9782     1.2481 H       
  40 H40           -7.8174    -0.7786    -1.2416 H       
  41 H41           -7.0833     0.8363    -1.0941 H       
  42 H42           -6.2823    -0.4198    -2.0682 H       
@<TRIPOS>BOND
   1    1    2 ar
   2    1    8 1
   3    1   15 ar
   4    2    3 ar
   5    2   24 1
   6    3    4 ar
   7    3   23 1
   8    4   14 ar
   9    4    5 1
  10    5    6 am
  11    5    7 2
  12    6   18 1
  13    6   20 1
  14    8    9 3
  15    9   10 1
  16   10   11 ar
  17   10   16 ar
  18   11   13 ar
  19   11   25 1
  20   12   17 ar
  21   12   16 ar
  22   12   26 1
  23   13   17 ar
  24   13   27 1
  25   14   15 ar
  26   15   28 1
  27   16   29 1
  28   17   30 1
  29   18   31 1
  30   18   32 1
  31   18   33 1
  32   19   20 1
  33   19   34 1
  34   19   35 1
  35   19   36 1
  36   20   21 1
  37   20   22 1
  38   21   37 1
  39   21   38 1
  40   21   39 1
  41   22   40 1
  42   22   41 1
  43   22   42 1

#	End of record

