#	Name: ASD02038067
#	Creating user name:	WinNT
#	Creation time:	15. 06. 2019 20:16

#	Modifying user name:	WinNT
#	Modification time:	15. 06. 2019 20:16

#	Program:	/corina/corina34_cracker 3.40 0067  02.08.2006

@<TRIPOS>MOLECULE
ASD02038067
  49   51    0    0    0
SMALL
NO_CHARGES


@<TRIPOS>ATOM
   1 C1            -0.4725     1.5929    -0.1489 C.3     
   2 N2             1.2302     3.3680     0.1127 N.am    
   3 C3             0.9435     2.0513     0.0872 C.2     
   4 C4             1.9902     6.6987    -0.0193 C.3     
   5 O5             1.4271     7.6362    -0.9391 O.3     
   6 C6             1.5392     8.9541    -0.6235 C.ar    
   7 C7             1.0146     9.9174    -1.4727 C.ar    
   8 C8             2.1731     9.3344     0.5503 C.ar    
   9 C9             2.2865    10.6726     0.8718 C.ar    
  10 C10            1.7663    11.6374     0.0197 C.ar    
  11 C11            1.1281    11.2560    -1.1528 C.ar    
  12 O12            1.8251     1.2354     0.2543 O.2     
  13 N13            1.8806    12.9957     0.3457 N.am    
  14 C14           -0.5227     0.0868    -0.1301 C.ar    
  15 C15            2.9843    13.4475     0.9736 C.2     
  16 N16            3.1366    14.7668     1.2032 N.am    
  17 O17            3.8426    12.6648     1.3330 O.2     
  18 C18            4.3363    15.2578     1.8857 C.3     
  19 C19            2.4374     4.1853     0.3063 C.3     
  20 C20            1.7680     5.2772    -0.5398 C.3     
  21 C21            0.4746     4.6195    -0.0473 C.3     
  22 C22           -0.7494    -0.5819     1.0583 C.ar    
  23 C23           -0.3476    -0.6246    -1.3022 C.ar    
  24 C24           -0.3938    -2.0064    -1.2871 C.ar    
  25 C25           -0.6148    -2.6781    -0.0988 C.ar    
  26 C26           -0.7956    -1.9650     1.0758 C.ar    
  27 Cl27          -0.6733    -4.4130    -0.0795 Cl      
  28 F28           -1.0112    -2.6197     2.2378 F       
  29 H29           -1.1179     1.9877     0.6357 H       
  30 H30           -0.8151     1.9558    -1.1180 H       
  31 H31            3.0592     6.8858     0.0815 H       
  32 H32            1.5088     6.8091     0.9524 H       
  33 H33            0.5176     9.6204    -2.3844 H       
  34 H34            2.5777     8.5838     1.2130 H       
  35 H35            2.7794    10.9686     1.7860 H       
  36 H36            0.7233    12.0060    -1.8160 H       
  37 H37            1.1654    13.6107     0.1193 H       
  38 H38            2.4519    15.3912     0.9165 H       
  39 H39            4.3997    14.8090     2.8770 H       
  40 H40            5.2197    14.9875     1.3073 H       
  41 H41            4.2820    16.3423     1.9807 H       
  42 H42            2.6011     4.4790     1.3431 H       
  43 H43            3.3277     3.7612    -0.1579 H       
  44 H44            1.9360     5.1775    -1.6122 H       
  45 H45           -0.3025     4.5653    -0.8097 H       
  46 H46            0.1123     5.0274     0.8964 H       
  47 H47           -0.8902    -0.0251     1.9730 H       
  48 H48           -0.1750    -0.1007    -2.2307 H       
  49 H49           -0.2575    -2.5612    -2.2036 H       
@<TRIPOS>BOND
   1    1   14 1
   2    1    3 1
   3    1   29 1
   4    1   30 1
   5    2    3 am
   6    2   19 1
   7    2   21 1
   8    3   12 2
   9    4    5 1
  10    4   20 1
  11    4   31 1
  12    4   32 1
  13    5    6 1
  14    6    7 ar
  15    6    8 ar
  16    7   11 ar
  17    7   33 1
  18    8    9 ar
  19    8   34 1
  20    9   10 ar
  21    9   35 1
  22   10   11 ar
  23   10   13 1
  24   11   36 1
  25   13   15 am
  26   13   37 1
  27   14   22 ar
  28   14   23 ar
  29   15   16 am
  30   15   17 2
  31   16   18 1
  32   16   38 1
  33   18   39 1
  34   18   40 1
  35   18   41 1
  36   19   20 1
  37   19   42 1
  38   19   43 1
  39   20   21 1
  40   20   44 1
  41   21   45 1
  42   21   46 1
  43   22   26 ar
  44   22   47 1
  45   23   24 ar
  46   23   48 1
  47   24   25 ar
  48   24   49 1
  49   25   26 ar
  50   25   27 1
  51   26   28 1

#	End of record

