#	Name: ASD01148200
#	Creating user name:	WinNT
#	Creation time:	15. 06. 2019 19:02

#	Modifying user name:	WinNT
#	Modification time:	15. 06. 2019 19:02

#	Program:	/corina/corina34_cracker 3.40 0067  02.08.2006

@<TRIPOS>MOLECULE
ASD01148200
  43   45    0    0    0
SMALL
NO_CHARGES


@<TRIPOS>ATOM
   1 C1            -0.0167     1.3788     0.0096 C.ar    
   2 C2             0.0021    -0.0041     0.0020 C.ar    
   3 C3             1.2111    -0.6793    -0.0132 C.ar    
   4 C4             2.3983     0.0300    -0.0207 C.ar    
   5 C5             2.3777     1.4123    -0.0131 C.ar    
   6 C6             1.1711     2.0863     0.0021 C.ar    
   7 C7             3.6717     2.1848    -0.0213 C.3     
   8 O8             4.6969     1.4669    -0.7376 O.3     
   9 C9             3.5414     3.4746    -0.8662 C.3     
  10 C10            4.0448     3.0300    -2.2262 C.2     
  11 N11            4.6709     1.9106    -2.0798 N.2     
  12 C12            3.8516     3.7528    -3.4987 C.ar    
  13 C13            4.3703     3.2289    -4.6856 C.ar    
  14 C14            3.1452     4.9581    -3.5172 C.ar    
  15 C15            2.9652     5.6321    -4.7038 C.ar    
  16 C16            3.4887     5.1111    -5.8895 C.ar    
  17 C17            4.1901     3.9032    -5.8721 C.ar    
  18 C18            3.2949     5.8347    -7.1636 C.2     
  19 O19            2.6799     6.8831    -7.1797 O.2     
  20 N20            3.8000     5.3321    -8.3076 N.am    
  21 C21            4.1231     2.5066     1.4048 C.3     
  22 F22            4.2989     1.3161     2.1181 F       
  23 F23            5.3325     3.2087     1.3638 F       
  24 F24            3.1507     3.2894     2.0363 F       
  25 Cl25           1.2364    -2.4151    -0.0221 Cl      
  26 Cl26          -1.4891    -0.8929     0.0121 Cl      
  27 C27            3.6078     6.0493    -9.5705 C.3     
  28 C28            4.2744     5.2701   -10.7060 C.3     
  29 F29            3.6987     3.9984   -10.7997 F       
  30 F30            4.0909     5.9550   -11.9120 F       
  31 F31            5.6430     5.1443   -10.4447 F       
  32 H32           -0.9592     1.9060     0.0170 H       
  33 H33            3.3415    -0.4959    -0.0322 H       
  34 H34            1.1560     3.1662     0.0080 H       
  35 H35            2.5013     3.7955    -0.9245 H       
  36 H36            4.1700     4.2676    -0.4612 H       
  37 H37            4.9128     2.2952    -4.6720 H       
  38 H38            2.7401     5.3608    -2.6006 H       
  39 H39            2.4188     6.5636    -4.7182 H       
  40 H40            4.5948     3.5005    -6.7888 H       
  41 H41            4.2907     4.4955    -8.2947 H       
  42 H42            2.5415     6.1473    -9.7741 H       
  43 H43            4.0563     7.0400    -9.4975 H       
@<TRIPOS>BOND
   1    1    2 ar
   2    1    6 ar
   3    1   32 1
   4    2    3 ar
   5    2   26 1
   6    3    4 ar
   7    3   25 1
   8    4    5 ar
   9    4   33 1
  10    5    6 ar
  11    5    7 1
  12    6   34 1
  13    7    8 1
  14    7    9 1
  15    7   21 1
  16    8   11 1
  17    9   10 1
  18    9   35 1
  19    9   36 1
  20   10   11 2
  21   10   12 1
  22   12   13 ar
  23   12   14 ar
  24   13   17 ar
  25   13   37 1
  26   14   15 ar
  27   14   38 1
  28   15   16 ar
  29   15   39 1
  30   16   17 ar
  31   16   18 1
  32   17   40 1
  33   18   19 2
  34   18   20 am
  35   20   27 1
  36   20   41 1
  37   21   22 1
  38   21   23 1
  39   21   24 1
  40   27   28 1
  41   27   42 1
  42   27   43 1
  43   28   29 1
  44   28   30 1
  45   28   31 1

#	End of record

