#	Name: ASD02508123
#	Creating user name:	WinNT
#	Creation time:	15. 06. 2019 20:23

#	Modifying user name:	WinNT
#	Modification time:	15. 06. 2019 20:23

#	Program:	/corina/corina34_cracker 3.40 0067  02.08.2006

@<TRIPOS>MOLECULE
ASD02508123
  40   42    0    0    0
SMALL
NO_CHARGES


@<TRIPOS>ATOM
   1 C1             0.0883     1.7449     0.3853 C.ar    
   2 C2             0.0128     0.3634     0.3022 C.ar    
   3 C3             1.3298     2.3794     0.3510 C.ar    
   4 C4             2.4854     1.6228     0.2340 C.ar    
   5 C5             2.4024     0.2465     0.1521 C.ar    
   6 C6             1.1697    -0.3822     0.1854 C.ar    
   7 N7            -0.8704     2.7511     0.5011 N.am    
   8 C8            -0.2179     3.9298     0.5395 C.2     
   9 O9             1.1035     3.7123     0.4488 O.3     
  10 S10            3.8725    -0.7133     0.0034 S.o2    
  11 N11            4.3759    -1.0798     1.5379 N.am    
  12 C12            3.5448    -1.8163     2.3898 C.ar    
  13 O13           -0.7450     5.0213     0.6367 O.2     
  14 C14           -2.3215     2.5615     0.5683 C.3     
  15 O15            3.4900    -1.9427    -0.5978 O.2     
  16 O16            4.8596     0.1475    -0.5479 O.2     
  17 C17            3.5204    -1.5371     3.7548 C.ar    
  18 O18            4.3044    -0.5481     4.2623 O.3     
  19 C19           -2.7483     2.4048     2.0292 C.3     
  20 C20            2.7394    -2.8219     1.8767 C.ar    
  21 C21            1.9184    -3.5482     2.7210 C.ar    
  22 C22            1.8990    -3.2735     4.0765 C.ar    
  23 C23            2.6963    -2.2682     4.5934 C.ar    
  24 Cl24           0.9100    -4.8064     2.0777 Cl      
  25 C25            4.2277    -0.3176     5.6705 C.3     
  26 H26           -0.9481    -0.1289     0.3290 H       
  27 H27            3.4494     2.1089     0.2066 H       
  28 H28            1.1124    -1.4587     0.1210 H       
  29 H29            5.2467    -0.7841     1.8463 H       
  30 H30           -2.8215     3.4275     0.1346 H       
  31 H31           -2.5971     1.6661     0.0112 H       
  32 H32           -2.2483     1.5387     2.4629 H       
  33 H33           -2.4727     3.3002     2.5863 H       
  34 H34           -3.8280     2.2637     2.0792 H       
  35 H35            2.7527    -3.0377     0.8186 H       
  36 H36            1.2566    -3.8424     4.7323 H       
  37 H37            2.6789    -2.0562     5.6523 H       
  38 H38            3.2062    -0.0488     5.9396 H       
  39 H39            4.5174    -1.2233     6.2033 H       
  40 H40            4.9010     0.4952     5.9429 H       
@<TRIPOS>BOND
   1    1    2 ar
   2    1    3 ar
   3    1    7 1
   4    2    6 ar
   5    2   26 1
   6    3    4 ar
   7    3    9 1
   8    4    5 ar
   9    4   27 1
  10    5    6 ar
  11    5   10 1
  12    6   28 1
  13    7    8 am
  14    7   14 1
  15    8    9 1
  16    8   13 2
  17   10   11 am
  18   10   15 2
  19   10   16 2
  20   11   12 1
  21   11   29 1
  22   12   17 ar
  23   12   20 ar
  24   14   19 1
  25   14   30 1
  26   14   31 1
  27   17   18 1
  28   17   23 ar
  29   18   25 1
  30   19   32 1
  31   19   33 1
  32   19   34 1
  33   20   21 ar
  34   20   35 1
  35   21   22 ar
  36   21   24 1
  37   22   23 ar
  38   22   36 1
  39   23   37 1
  40   25   38 1
  41   25   39 1
  42   25   40 1

#	End of record

