#	Name: ASD01420098
#	Creating user name:	WinNT
#	Creation time:	15. 06. 2019 19:20

#	Modifying user name:	WinNT
#	Modification time:	15. 06. 2019 19:20

#	Program:	/corina/corina34_cracker 3.40 0067  02.08.2006

@<TRIPOS>MOLECULE
ASD01420098
  54   57    0    0    0
SMALL
NO_CHARGES


@<TRIPOS>ATOM
   1 C1            -0.0144     1.2120     0.0087 C.2     
   2 O2             0.1295     0.0132     0.1547 O.2     
   3 C3             1.0482     3.4384    -0.4755 C.3     
   4 N4             1.0607     2.0009    -0.1867 N.am    
   5 C5             2.4665     1.5858    -0.1513 C.3     
   6 C6             3.3116     2.8043    -0.4252 C.ar    
   7 C7             4.6836     2.9612    -0.5037 C.ar    
   8 C8             5.2260     4.2102    -0.7735 C.ar    
   9 C9             4.3869     5.3009    -0.9642 C.ar    
  10 C10            3.0188     5.1381    -0.8847 C.ar    
  11 C11            2.4800     3.8908    -0.6154 C.ar    
  12 N12            6.6114     4.3700    -0.8525 N.3     
  13 C13            6.9647     5.7666    -1.1456 C.3     
  14 C14            8.4890     5.9086    -1.1641 C.3     
  15 O15            9.0358     4.9991    -2.1228 O.3     
  16 C16            8.7118     3.6297    -1.8675 C.3     
  17 C17            7.1898     3.4647    -1.8561 C.3     
  18 C18           -1.3642     1.8009     0.0394 C.ar    
  19 C19           -2.2646     1.4464     1.0558 C.ar    
  20 C20           -3.5308     2.0049     1.0775 C.ar    
  21 C21           -3.9068     2.9112     0.0968 C.ar    
  22 C22           -3.0152     3.2636    -0.9116 C.ar    
  23 C23           -1.7517     2.7197    -0.9407 C.ar    
  24 C24           -3.4329     4.2490    -1.9725 C.3     
  25 C25           -2.5005     5.4616    -1.9378 C.3     
  26 C26           -3.3523     3.5828    -3.3475 C.3     
  27 O27           -5.1495     3.4560     0.1208 O.3     
  28 O28           -1.8954     0.5593     2.0134 O.3     
  29 H29            0.5097     3.6238    -1.4048 H       
  30 H30            0.5694     3.9755     0.3433 H       
  31 H31            2.7079     1.1824     0.8321 H       
  32 H32            2.6482     0.8307    -0.9161 H       
  33 H33            5.3333     2.1115    -0.3546 H       
  34 H34            4.8045     6.2745    -1.1739 H       
  35 H35            2.3663     5.9859    -1.0326 H       
  36 H36            6.5612     6.0477    -2.1183 H       
  37 H37            6.5480     6.4166    -0.3762 H       
  38 H38            8.7562     6.9294    -1.4372 H       
  39 H39            8.8880     5.6792    -0.1760 H       
  40 H40            9.1400     3.0024    -2.6493 H       
  41 H41            9.1172     3.3341    -0.8998 H       
  42 H42            6.9372     2.4344    -1.6054 H       
  43 H43            6.7898     3.7090    -2.8401 H       
  44 H44           -4.2266     1.7346     1.8580 H       
  45 H45           -1.0610     2.9992    -1.7225 H       
  46 H46           -4.4568     4.5725    -1.7850 H       
  47 H47           -1.4766     5.1381    -2.1253 H       
  48 H48           -2.8027     6.1743    -2.7051 H       
  49 H49           -2.5580     5.9362    -0.9582 H       
  50 H50           -2.3284     3.2594    -3.5350 H       
  51 H51           -4.0165     2.7190    -3.3722 H       
  52 H52           -3.6544     4.2956    -4.1148 H       
  53 H53           -5.2088     4.2782     0.6264 H       
  54 H54           -1.4867     0.9660     2.7898 H       
@<TRIPOS>BOND
   1    1    2 2
   2    1    4 am
   3    1   18 1
   4    3    4 1
   5    3   11 1
   6    3   29 1
   7    3   30 1
   8    4    5 1
   9    5    6 1
  10    5   31 1
  11    5   32 1
  12    6    7 ar
  13    6   11 ar
  14    7    8 ar
  15    7   33 1
  16    8    9 ar
  17    8   12 1
  18    9   10 ar
  19    9   34 1
  20   10   11 ar
  21   10   35 1
  22   12   13 1
  23   12   17 1
  24   13   14 1
  25   13   36 1
  26   13   37 1
  27   14   15 1
  28   14   38 1
  29   14   39 1
  30   15   16 1
  31   16   17 1
  32   16   40 1
  33   16   41 1
  34   17   42 1
  35   17   43 1
  36   18   19 ar
  37   18   23 ar
  38   19   20 ar
  39   19   28 1
  40   20   21 ar
  41   20   44 1
  42   21   22 ar
  43   21   27 1
  44   22   23 ar
  45   22   24 1
  46   23   45 1
  47   24   25 1
  48   24   26 1
  49   24   46 1
  50   25   47 1
  51   25   48 1
  52   25   49 1
  53   26   50 1
  54   26   51 1
  55   26   52 1
  56   27   53 1
  57   28   54 1

#	End of record

