#	Name: ASD01915121
#	Creating user name:	WinNT
#	Creation time:	15. 06. 2019 20:04

#	Modifying user name:	WinNT
#	Modification time:	15. 06. 2019 20:04

#	Program:	/corina/corina34_cracker 3.40 0067  02.08.2006

@<TRIPOS>MOLECULE
ASD01915121
  42   45    0    0    0
SMALL
NO_CHARGES


@<TRIPOS>ATOM
   1 C1            -0.0169     1.3924     0.0097 C.ar    
   2 C2             0.0021    -0.0041     0.0020 C.ar    
   3 N3            -1.1430    -0.6903     0.0092 N.ar    
   4 C4            -2.3136    -0.0965     0.0236 C.ar    
   5 C5            -2.4136     1.2863     0.0320 C.ar    
   6 C6            -1.2657     2.0479     0.0305 C.ar    
   7 C7             1.3286     1.9586    -0.0001 C.2     
   8 C8             2.3057     1.0550    -0.0143 C.2     
   9 S9             1.6661    -0.5765    -0.0169 S.3     
  10 C10            1.5853     3.4182     0.0053 C.ar    
  11 C11            1.2153     4.1896     1.1063 C.ar    
  12 C12            1.4570     5.5481     1.1063 C.ar    
  13 C13            2.0652     6.1455     0.0155 C.ar    
  14 C14            2.4346     5.3842    -1.0803 C.ar    
  15 C15            2.2028     4.0241    -1.0883 C.ar    
  16 Cl16           2.3654     7.8553     0.0216 Cl      
  17 S17            4.0231     1.4489    -0.0291 S.o2    
  18 O18            4.4352     1.3960    -1.3880 O.2     
  19 O19            4.1771     2.6031     0.7854 O.2     
  20 N20            4.8147     0.2193     0.7479 N.am    
  21 C21            4.8160    -1.1288     0.1743 C.3     
  22 C22            5.8801    -1.9590     0.8448 C.ar    
  23 C23            5.5741    -2.6911     1.9768 C.ar    
  24 C24            6.5496    -3.4527     2.5922 C.ar    
  25 C25            7.8325    -3.4822     2.0751 C.ar    
  26 C26            8.1381    -2.7492     0.9422 C.ar    
  27 C27            7.1604    -1.9925     0.3244 C.ar    
  28 Cl28           9.0585    -4.4381     2.8478 Cl      
  29 H29           -3.2129    -0.6945     0.0286 H       
  30 H30           -3.3830     1.7623     0.0435 H       
  31 H31           -1.3210     3.1265     0.0370 H       
  32 H32            0.7401     3.7247     1.9575 H       
  33 H33            1.1709     6.1465     1.9586 H       
  34 H34            2.9088     5.8552    -1.9287 H       
  35 H35            2.4916     3.4311    -1.9435 H       
  36 H36            5.2776     0.3916     1.5827 H       
  37 H37            3.8416    -1.5914     0.3314 H       
  38 H38            5.0217    -1.0688    -0.8944 H       
  39 H39            4.5727    -2.6677     2.3806 H       
  40 H40            6.3106    -4.0244     3.4768 H       
  41 H41            9.1394    -2.7719     0.5380 H       
  42 H42            7.3977    -1.4238    -0.5625 H       
@<TRIPOS>BOND
   1    1    2 ar
   2    1    7 1
   3    1    6 ar
   4    2    3 ar
   5    2    9 1
   6    3    4 ar
   7    4    5 ar
   8    4   29 1
   9    5    6 ar
  10    5   30 1
  11    6   31 1
  12    7    8 2
  13    7   10 1
  14    8    9 1
  15    8   17 1
  16   10   11 ar
  17   10   15 ar
  18   11   12 ar
  19   11   32 1
  20   12   13 ar
  21   12   33 1
  22   13   14 ar
  23   13   16 1
  24   14   15 ar
  25   14   34 1
  26   15   35 1
  27   17   18 2
  28   17   19 2
  29   17   20 am
  30   20   21 1
  31   20   36 1
  32   21   22 1
  33   21   37 1
  34   21   38 1
  35   22   23 ar
  36   22   27 ar
  37   23   24 ar
  38   23   39 1
  39   24   25 ar
  40   24   40 1
  41   25   26 ar
  42   25   28 1
  43   26   27 ar
  44   26   41 1
  45   27   42 1

#	End of record

