#	Name: ASD05730138
#	Creating user name:	WinNT
#	Creation time:	15. 06. 2019 21:02

#	Modifying user name:	WinNT
#	Modification time:	15. 06. 2019 21:02

#	Program:	/corina/corina34_cracker 3.40 0067  02.08.2006

@<TRIPOS>MOLECULE
ASD05730138
  65   70    0    0    0
SMALL
NO_CHARGES


@<TRIPOS>ATOM
   1 O1             0.3002     1.6868     0.8540 O.3     
   2 C2             0.2869     0.3330     0.7271 C.ar    
   3 C3            -0.6957    -0.2822    -0.0346 C.ar    
   4 C4            -0.7099    -1.6570    -0.1640 C.ar    
   5 C5             0.2598    -2.4236     0.4687 C.ar    
   6 C6             1.2431    -1.8070     1.2311 C.ar    
   7 C7             1.2592    -0.4317     1.3548 C.ar    
   8 N8             0.2458    -3.8177     0.3384 N.pl3   
   9 C9             1.4329    -4.5106     0.2050 C.ar    
  10 N10            1.4010    -5.8345     0.1957 N.ar    
  11 C11            2.5216    -6.5359     0.0688 C.ar    
  12 C12            3.7449    -5.8420    -0.0556 C.ar    
  13 C13            3.7256    -4.4387    -0.0400 C.ar    
  14 N14            2.5645    -3.8244     0.0853 N.ar    
  15 N15            2.4961    -7.9098     0.0588 N.am    
  16 C16            3.6334    -8.6197    -0.0691 C.2     
  17 C17            4.9211    -7.9356    -0.2000 C.2     
  18 C18            4.9566    -6.5556    -0.1928 C.2     
  19 C19            1.2804    -8.5757     0.1827 C.2     
  20 O20            3.5904    -9.8370    -0.0754 O.2     
  21 C21            6.1717    -8.7155    -0.3402 C.ar    
  22 C22           -0.6626     2.4192     0.0932 C.3     
  23 S23           -0.2414    -7.8137     0.3451 S.3     
  24 C24           -2.0070     2.4729     0.8423 C.3     
  25 N25            6.1233   -10.0422    -0.3469 N.ar    
  26 C26            7.3912    -8.0505    -0.4699 C.ar    
  27 C27            8.5508    -8.7930    -0.6004 C.ar    
  28 C28            8.4551   -10.1782    -0.5972 C.ar    
  29 C29            7.2136   -10.7722    -0.4700 C.ar    
  30 S30            9.9025   -11.1697    -0.7603 S.o2    
  31 C31           10.4649   -11.4336     0.9440 C.3     
  32 O32            9.4321   -12.3863    -1.3241 O.2     
  33 O33           10.8172   -10.3413    -1.4647 O.2     
  34 N34            1.1365    -9.8638     0.1861 N.2     
  35 C35           -0.0917   -10.3277     0.3124 C.2     
  36 C36           -1.0324    -9.3861     0.4193 C.2     
  37 N37           -2.2879     3.8965     1.1280 N.3     
  38 C38           -1.5557     4.6696     0.0924 C.3     
  39 C39           -0.2222     3.8940    -0.0521 C.3     
  40 C40           -3.7299     4.1709     1.0684 C.3     
  41 H41           -1.4500     0.3141    -0.5264 H       
  42 H42           -1.4752    -2.1359    -0.7568 H       
  43 H43            1.9974    -2.4025     1.7238 H       
  44 H44            2.0241     0.0481     1.9474 H       
  45 H45           -0.5976    -4.2967     0.3419 H       
  46 H46            4.6413    -3.8736    -0.1326 H       
  47 H47            5.8953    -6.0301    -0.2884 H       
  48 H48           -0.7942     1.9636    -0.8882 H       
  49 H49           -2.7971     2.0566     0.2173 H       
  50 H50           -1.9348     1.9141     1.7753 H       
  51 H51            7.4292    -6.9711    -0.4688 H       
  52 H52            9.5094    -8.3062    -0.7029 H       
  53 H53            7.1364   -11.8494    -0.4668 H       
  54 H54            9.6845   -11.9427     1.5094 H       
  55 H55           11.3672   -12.0451     0.9383 H       
  56 H56           10.6811   -10.4714     1.4083 H       
  57 H57           -0.3184   -11.3836     0.3267 H       
  58 H58           -2.0928    -9.5583     0.5302 H       
  59 H59           -2.1054     4.6685    -0.8488 H       
  60 H60           -1.3728     5.6893     0.4312 H       
  61 H61            0.4721     4.1693     0.7418 H       
  62 H62            0.2216     4.0692    -1.0321 H       
  63 H63           -4.2472     3.5576     1.8061 H       
  64 H64           -3.9084     5.2247     1.2823 H       
  65 H65           -4.1039     3.9339     0.0723 H       
@<TRIPOS>BOND
   1    1    2 1
   2    1   22 1
   3    2    3 ar
   4    2    7 ar
   5    3    4 ar
   6    3   41 1
   7    4    5 ar
   8    4   42 1
   9    5    6 ar
  10    5    8 1
  11    6    7 ar
  12    6   43 1
  13    7   44 1
  14    8    9 1
  15    8   45 1
  16    9   10 ar
  17    9   14 ar
  18   10   11 ar
  19   11   12 ar
  20   11   15 1
  21   12   13 ar
  22   12   18 1
  23   13   14 ar
  24   13   46 1
  25   15   16 am
  26   15   19 1
  27   16   17 1
  28   16   20 2
  29   17   18 2
  30   17   21 1
  31   18   47 1
  32   19   34 2
  33   19   23 1
  34   21   25 ar
  35   21   26 ar
  36   22   24 1
  37   22   39 1
  38   22   48 1
  39   23   36 1
  40   24   37 1
  41   24   49 1
  42   24   50 1
  43   25   29 ar
  44   26   27 ar
  45   26   51 1
  46   27   28 ar
  47   27   52 1
  48   28   29 ar
  49   28   30 1
  50   29   53 1
  51   30   31 1
  52   30   32 2
  53   30   33 2
  54   31   54 1
  55   31   55 1
  56   31   56 1
  57   34   35 1
  58   35   36 2
  59   35   57 1
  60   36   58 1
  61   37   38 1
  62   37   40 1
  63   38   39 1
  64   38   59 1
  65   38   60 1
  66   39   61 1
  67   39   62 1
  68   40   63 1
  69   40   64 1
  70   40   65 1

#	End of record

