#	Name: ASD04880128
#	Creating user name:	WinNT
#	Creation time:	15. 06. 2019 20:52

#	Modifying user name:	WinNT
#	Modification time:	15. 06. 2019 20:52

#	Program:	/corina/corina34_cracker 3.40 0067  02.08.2006

@<TRIPOS>MOLECULE
ASD04880128
  47   49    0    0    0
SMALL
NO_CHARGES


@<TRIPOS>ATOM
   1 C1            -0.0144     1.2118     0.0087 C.2     
   2 O2            -0.0006    -0.0039     0.0326 O.2     
   3 N3             1.1442     1.8979    -0.0499 N.am    
   4 N4             1.2619     3.2789    -0.1934 N.2     
   5 C5             2.4783     3.7031    -0.2239 C.2     
   6 C6             3.4251     2.5319    -0.0902 C.3     
   7 C7             2.4913     1.3116     0.0335 C.3     
   8 C8             4.3105     2.4130    -1.3323 C.3     
   9 C9             4.2817     2.6754     1.1694 C.3     
  10 C10            2.8841     5.1130    -0.3676 C.ar    
  11 C11            1.9144     6.1129    -0.4836 C.ar    
  12 C12            2.3005     7.4329    -0.6180 C.ar    
  13 C13            3.6538     7.7647    -0.6378 C.ar    
  14 C14            4.6164     6.7728    -0.5228 C.ar    
  15 C15            4.2388     5.4536    -0.3824 C.ar    
  16 O16            4.0315     9.0638    -0.7706 O.3     
  17 C17            5.4348     9.3334    -0.7833 C.3     
  18 O18            1.3596     8.4082    -0.7316 O.3     
  19 C19           -0.0085     7.9963    -0.7040 C.3     
  20 C20           -1.3015     1.9366     0.0378 C.ar    
  21 C21           -2.5051     1.2325    -0.0453 C.ar    
  22 C22           -3.7057     1.9182    -0.0174 C.ar    
  23 C23           -3.7144     3.2991     0.0927 C.ar    
  24 C24           -2.5246     4.0001     0.1749 C.ar    
  25 C25           -1.3202     3.3277     0.1544 C.ar    
  26 F26           -4.8716     1.2405    -0.0981 F       
  27 Br27          -2.4927    -0.6524    -0.1963 Br      
  28 H28            2.6338     0.8128     0.9921 H       
  29 H29            2.6592     0.6175    -0.7900 H       
  30 H30            4.9116     3.3161    -1.4378 H       
  31 H31            4.9673     1.5493    -1.2290 H       
  32 H32            3.6832     2.2889    -2.2151 H       
  33 H33            3.6343     2.7356     2.0442 H       
  34 H34            4.9387     1.8106     1.2624 H       
  35 H35            4.8825     3.5822     1.0988 H       
  36 H36            0.8659     5.8544    -0.4685 H       
  37 H37            5.6641     7.0345    -0.5386 H       
  38 H38            4.9903     4.6838    -0.2882 H       
  39 H39            5.8785     8.9936     0.1526 H       
  40 H40            5.8984     8.8069    -1.6175 H       
  41 H41            5.5978    10.4054    -0.8946 H       
  42 H42           -0.1978     7.3093    -1.5288 H       
  43 H43           -0.2182     7.4956     0.2412 H       
  44 H44           -0.6530     8.8697    -0.8034 H       
  45 H45           -4.6542     3.8308     0.1141 H       
  46 H46           -2.5387     5.0766     0.2602 H       
  47 H47           -0.3930     3.8771     0.2239 H       
@<TRIPOS>BOND
   1    1    2 2
   2    1    3 am
   3    1   20 1
   4    3    4 1
   5    3    7 1
   6    4    5 2
   7    5    6 1
   8    5   10 1
   9    6    7 1
  10    6    8 1
  11    6    9 1
  12    7   28 1
  13    7   29 1
  14    8   30 1
  15    8   31 1
  16    8   32 1
  17    9   33 1
  18    9   34 1
  19    9   35 1
  20   10   11 ar
  21   10   15 ar
  22   11   12 ar
  23   11   36 1
  24   12   13 ar
  25   12   18 1
  26   13   14 ar
  27   13   16 1
  28   14   15 ar
  29   14   37 1
  30   15   38 1
  31   16   17 1
  32   17   39 1
  33   17   40 1
  34   17   41 1
  35   18   19 1
  36   19   42 1
  37   19   43 1
  38   19   44 1
  39   20   21 ar
  40   20   25 ar
  41   21   22 ar
  42   21   27 1
  43   22   23 ar
  44   22   26 1
  45   23   24 ar
  46   23   45 1
  47   24   25 ar
  48   24   46 1
  49   25   47 1

#	End of record

