#	Name: ASD01915576
#	Creating user name:	WinNT
#	Creation time:	15. 06. 2019 20:05

#	Modifying user name:	WinNT
#	Modification time:	15. 06. 2019 20:05

#	Program:	/corina/corina34_cracker 3.40 0067  02.08.2006

@<TRIPOS>MOLECULE
ASD01915576
  39   42    0    0    0
SMALL
NO_CHARGES


@<TRIPOS>ATOM
   1 C1            -0.0166     1.3729     0.0096 C.2     
   2 N2             0.0021    -0.0041     0.0020 N.pl3   
   3 C3            -1.2433    -0.7807    -0.0179 C.3     
   4 C4            -2.3411     0.0068     0.6954 C.3     
   5 N5            -2.4042     1.3989     0.2636 N.am    
   6 C6            -1.2810     2.1228     0.0392 C.2     
   7 C7             1.2847     1.7904    -0.0006 C.2     
   8 C8             2.0437     0.6125    -0.0024 C.2     
   9 N9             1.2133    -0.4042     0.0045 N.2     
  10 C10            3.5483     0.5278    -0.0114 C.3     
  11 O11            4.0996     1.8461    -0.0181 O.3     
  12 C12            5.4547     1.9482    -0.0267 C.ar    
  13 O13           -1.3167     3.3269    -0.1281 O.2     
  14 C14            6.0574     3.1977    -0.0335 C.ar    
  15 C15            6.2378     0.8030    -0.0230 C.ar    
  16 C16            7.6151     0.9094    -0.0318 C.ar    
  17 C17            8.2133     2.1559    -0.0443 C.ar    
  18 C18            7.4351     3.2988    -0.0422 C.ar    
  19 C19           -3.6438     1.9957     0.0784 C.ar    
  20 N20           -3.7004     3.2593    -0.3136 N.ar    
  21 C21           -4.8651     3.8580    -0.4999 C.ar    
  22 C22           -6.0340     3.1462    -0.2798 C.ar    
  23 C23           -5.9379     1.8254     0.1299 C.ar    
  24 N24           -4.7411     1.2860     0.2926 N.ar    
  25 H25           -1.5404    -0.9656    -1.0502 H       
  26 H26           -1.0875    -1.7313     0.4923 H       
  27 H27           -3.3017    -0.4679     0.4954 H       
  28 H28           -2.1536    -0.0208     1.7688 H       
  29 H29            1.6488     2.8072    -0.0064 H       
  30 H30            3.8876    -0.0035     0.8778 H       
  31 H31            3.8767    -0.0079    -0.9021 H       
  32 H32            5.4500     4.0907    -0.0322 H       
  33 H33            5.7710    -0.1709    -0.0128 H       
  34 H34            8.2251     0.0182    -0.0285 H       
  35 H35            9.2902     2.2370    -0.0511 H       
  36 H36            7.9047     4.2713    -0.0524 H       
  37 H37           -4.9049     4.8890    -0.8193 H       
  38 H38           -6.9983     3.6105    -0.4239 H       
  39 H39           -6.8292     1.2429     0.3105 H       
@<TRIPOS>BOND
   1    1    2 1
   2    1    7 2
   3    1    6 1
   4    2    3 1
   5    2    9 1
   6    3    4 1
   7    3   25 1
   8    3   26 1
   9    4    5 1
  10    4   27 1
  11    4   28 1
  12    5    6 am
  13    5   19 1
  14    6   13 2
  15    7    8 1
  16    7   29 1
  17    8    9 2
  18    8   10 1
  19   10   11 1
  20   10   30 1
  21   10   31 1
  22   11   12 1
  23   12   14 ar
  24   12   15 ar
  25   14   18 ar
  26   14   32 1
  27   15   16 ar
  28   15   33 1
  29   16   17 ar
  30   16   34 1
  31   17   18 ar
  32   17   35 1
  33   18   36 1
  34   19   20 ar
  35   19   24 ar
  36   20   21 ar
  37   21   22 ar
  38   21   37 1
  39   22   23 ar
  40   22   38 1
  41   23   24 ar
  42   23   39 1

#	End of record

