#	Name: ASD06590032
#	Creating user name:	WinNT
#	Creation time:	15. 06. 2019 21:06

#	Modifying user name:	WinNT
#	Modification time:	15. 06. 2019 21:06

#	Program:	/corina/corina34_cracker 3.40 0067  02.08.2006

@<TRIPOS>MOLECULE
ASD06590032
 260  259    0    0    0
SMALL
NO_CHARGES


@<TRIPOS>ATOM
   1 C1            -0.2776     3.7146     5.0201 C.2     
   2 O2            -0.0577     2.8091     5.7963 O.2     
   3 N3             1.8748     4.6299     5.6792 N.3     
   4 C4             0.8220     4.6786     4.6558 C.3     
   5 C5             1.4118     4.2904     3.2985 C.3     
   6 C6             2.4253     5.3230     2.8772 C.2     
   7 O7             2.6534     6.2753     3.5919 O.2     
   8 N8             3.0782     5.1878     1.7060 N.am    
   9 C9            -3.3470     2.6223     3.4932 C.2     
  10 O10           -3.1159     3.2695     2.4939 O.2     
  11 N11           -1.5039     3.8554     4.4789 N.am    
  12 C12           -2.5412     2.8558     4.7451 C.3     
  13 C13           -3.4622     3.3605     5.8577 C.3     
  14 C14           -3.9797     4.7547     5.4982 C.3     
  15 C15           -4.8971     4.6591     4.2775 C.3     
  16 C16           -2.6833     3.4291     7.1728 C.3     
  17 C17           -6.4899     0.9346     2.6954 C.2     
  18 O18           -6.6274     0.4425     3.7953 O.2     
  19 N19           -4.3243     1.6943     3.4841 N.am    
  20 C20           -5.1625     1.5249     2.2946 C.3     
  21 C21           -4.4642     0.5869     1.3080 C.3     
  22 C22           -3.1857     1.2500     0.7915 C.3     
  23 C23           -4.1097    -0.7235     2.0139 C.3     
  24 C24           -9.6390     0.0394     1.0690 C.2     
  25 O25           -9.1435     0.0792    -0.0373 O.2     
  26 N26           -7.5242     0.9534     1.8314 N.am    
  27 C27           -8.8494     0.5044     2.2654 C.3     
  28 C28           -9.5841     1.6632     2.9423 C.3     
  29 C29           -8.8484     2.0532     4.2259 C.3     
  30 C30           -9.5832     3.2120     4.9028 C.3     
  31 N31           -8.8788     3.5855     6.1319 N.pl3   
  32 C32           -9.3571     4.6099     6.9141 C.2     
  33 N33          -10.4373     5.2488     6.5623 N.2     
  34 N34           -8.6960     4.9604     8.0675 N.pl3   
  35 C35          -13.1366    -0.7496     0.3571 C.2     
  36 O36          -13.5147    -0.5337     1.4891 O.2     
  37 N37          -10.8957    -0.4207     1.2284 N.am    
  38 C38          -11.6633    -0.8727     0.0653 C.3     
  39 C39          -11.3230    -2.3341    -0.2337 C.3     
  40 C40           -9.8630    -2.4368    -0.6797 C.3     
  41 C41          -11.5312    -3.1746     1.0277 C.3     
  42 C42          -16.2872    -1.3912    -1.3822 C.2     
  43 O43          -15.7472    -2.0765    -2.2246 O.2     
  44 N44          -14.0342    -0.8794    -0.6399 N.am    
  45 C45          -15.4547    -0.6287    -0.3839 C.3     
  46 C46          -15.7408     0.8682    -0.5188 C.3     
  47 C47          -14.9916     1.6313     0.5754 C.3     
  48 C48          -15.1765     3.1356     0.3662 C.3     
  49 C49          -15.5465     1.2349     1.9450 C.3     
  50 C50          -19.7757    -1.3723    -2.4746 C.2     
  51 O51          -20.0261    -0.3672    -1.8438 O.2     
  52 N52          -17.6319    -1.3115    -1.3389 N.am    
  53 C53          -18.4413    -2.0528    -2.3094 C.3     
  54 C54          -18.6563    -3.4822    -1.8081 C.3     
  55 C55          -23.0102    -2.2241    -3.9496 C.2     
  56 O56          -22.6868    -3.3790    -4.1296 O.2     
  57 N57          -20.6909    -1.8807    -3.3233 N.am    
  58 C58          -21.9882    -1.2192    -3.4839 C.3     
  59 C59          -21.8650    -0.0997    -4.5194 C.3     
  60 C60          -20.7409     0.8535    -4.1087 C.3     
  61 O61          -21.5676    -0.6641    -5.7981 O.3     
  62 C62          -26.3830    -2.1038    -5.3541 C.2     
  63 O63          -26.3450    -0.8989    -5.4868 O.2     
  64 N64          -24.2836    -1.8392    -4.1660 N.am    
  65 C65          -25.2771    -2.8160    -4.6188 C.3     
  66 C66          -25.8591    -3.5497    -3.4089 C.3     
  67 C67          -24.7600    -4.3732    -2.7345 C.3     
  68 C68          -25.3420    -5.1069    -1.5246 C.3     
  69 C69          -24.2428    -5.9303    -0.8503 C.3     
  70 N70          -24.8016    -6.6348     0.3114 N.3     
  71 C71          -29.7504    -2.9355    -6.5082 C.2     
  72 O72          -29.7510    -3.9954    -5.9187 O.2     
  73 N73          -27.4143    -2.8058    -5.8641 N.am    
  74 C74          -28.4894    -2.1134    -6.5789 C.3     
  75 C75          -28.0874    -1.9211    -8.0426 C.3     
  76 C76          -26.8803    -0.9843    -8.1210 C.3     
  77 C77          -26.4010    -0.8904    -9.5710 C.3     
  78 C78          -27.2811     0.4066    -7.6253 C.3     
  79 C79          -32.9897    -2.9542    -8.2023 C.2     
  80 O80          -32.6325    -2.1272    -9.0143 O.2     
  81 N81          -30.8775    -2.4929    -7.1000 N.am    
  82 C82          -32.1034    -3.2921    -7.0312 C.3     
  83 C83          -32.8414    -2.9828    -5.7271 C.3     
  84 C84          -31.9923    -3.4409    -4.5397 C.3     
  85 C85          -32.7303    -3.1317    -3.2356 C.3     
  86 N86          -31.9174    -3.5704    -2.0985 N.pl3   
  87 C87          -32.3787    -3.3949    -0.8153 C.2     
  88 N88          -33.5393    -2.8382    -0.6104 N.2     
  89 N89          -31.6157    -3.8066     0.2517 N.pl3   
  90 C90          -35.8727    -2.0308    -9.1528 C.2     
  91 O91          -35.7577    -1.4964    -8.0753 O.2     
  92 N92          -34.1792    -3.5710    -8.3472 N.am    
  93 C93          -35.0408    -3.2425    -9.4856 C.3     
  94 C94          -35.9619    -4.4266    -9.7864 C.3     
  95 C95          -35.1234    -5.6214   -10.2449 C.3     
  96 C96          -36.0307    -6.7876   -10.5412 C.2     
  97 O97          -37.2254    -6.6747   -10.4001 O.2     
  98 O98          -35.5116    -7.9518   -10.9618 O.3     
  99 O99          -36.7414    -1.5452   -10.0535 O.3     
 100 C100           3.9846     6.1113     1.3292 C.2     
 101 O101           4.2127     7.0636     2.0439 O.2     
 102 C102          16.6499    13.1020   -10.5834 C.3     
 103 C103          15.9087    13.2555    -9.2538 C.3     
 104 C104          14.9448    12.0818    -9.0687 C.3     
 105 C105          14.2037    12.2352    -7.7391 C.3     
 106 C106          13.2398    11.0615    -7.5540 C.3     
 107 C107          12.4986    11.2150    -6.2243 C.3     
 108 C108          11.5348    10.0412    -6.0393 C.3     
 109 C109          10.7936    10.1947    -4.7096 C.3     
 110 C110           9.8297     9.0210    -4.5246 C.3     
 111 C111           9.0886     9.1744    -3.1949 C.3     
 112 C112           8.1247     8.0007    -3.0099 C.3     
 113 C113           7.3836     8.1542    -1.6802 C.3     
 114 C114           6.4197     6.9804    -1.4952 C.3     
 115 C115           5.6785     7.1339    -0.1655 C.3     
 116 C116           4.7147     5.9602     0.0195 C.3     
 117 H117           1.5258     4.9442     6.5722 H       
 118 H118           2.2674     3.7032     5.7502 H       
 119 H119           0.4160     5.6887     4.6000 H       
 120 H120           1.8961     3.3171     3.3778 H       
 121 H121           0.6145     4.2401     2.5569 H       
 122 H122           2.8957     4.4258     1.1341 H       
 123 H123          -1.6996     4.6186     3.9131 H       
 124 H124          -2.0740     1.9214     5.0561 H       
 125 H125          -4.3047     2.6780     5.9696 H       
 126 H126          -4.5375     5.1637     6.3407 H       
 127 H127          -3.1371     5.4072     5.2692 H       
 128 H128          -4.2927     4.5668     3.3751 H       
 129 H129          -5.5410     3.7850     4.3744 H       
 130 H130          -5.5112     5.5574     4.2132 H       
 131 H131          -1.9111     4.1948     7.0982 H       
 132 H132          -3.3648     3.6783     7.9862 H       
 133 H133          -2.2190     2.4630     7.3709 H       
 134 H134          -4.4727     1.1386     4.2652 H       
 135 H135          -5.3235     2.4941     1.8226 H       
 136 H136          -5.1300     0.3797     0.4703 H       
 137 H137          -2.4733     1.3523     1.6101 H       
 138 H138          -2.7494     0.6344     0.0049 H       
 139 H139          -3.4237     2.2357     0.3917 H       
 140 H140          -5.0204    -1.1959     2.3819 H       
 141 H141          -3.6122    -1.3917     1.3110 H       
 142 H142          -3.4438    -0.5163     2.8517 H       
 143 H143          -7.3911     1.2643     0.9223 H       
 144 H144          -8.7409    -0.3189     2.9715 H       
 145 H145          -9.6145     2.5182     2.2669 H       
 146 H146         -10.6012     1.3559     3.1856 H       
 147 H147          -8.8180     1.1983     4.9013 H       
 148 H148          -7.8313     2.3605     3.9827 H       
 149 H149          -9.6136     4.0670     4.2274 H       
 150 H150         -10.6003     2.9048     5.1461 H       
 151 H151          -8.0749     3.1100     6.3937 H       
 152 H152         -10.7748     5.9716     7.1142 H       
 153 H153          -7.8921     4.4849     8.3294 H       
 154 H154          -9.0335     5.6831     8.6195 H       
 155 H155         -11.2920    -0.4525     2.1132 H       
 156 H156         -11.4112    -0.2569    -0.7980 H       
 157 H157         -11.9722    -2.7032    -1.0276 H       
 158 H158          -9.2097    -2.1694     0.1508 H       
 159 H159          -9.6504    -3.4583    -0.9949 H       
 160 H160          -9.6889    -1.7558    -1.5128 H       
 161 H161         -12.5713    -3.1015     1.3454 H       
 162 H162         -11.2888    -4.2157     0.8147 H       
 163 H163         -10.8819    -2.8055     1.8216 H       
 164 H164         -13.7396    -1.1388    -1.5269 H       
 165 H165         -15.7056    -0.9572     0.6247 H       
 166 H166         -15.4076     1.2151    -1.4969 H       
 167 H167         -16.8116     1.0442    -0.4162 H       
 168 H168         -13.9307     1.3856     0.5283 H       
 169 H169         -16.2374     3.3813     0.4133 H       
 170 H170         -14.6427     3.6792     1.1457 H       
 171 H171         -14.7811     3.4180    -0.6096 H       
 172 H172         -15.4148     0.1632     2.0941 H       
 173 H173         -15.0128     1.7785     2.7246 H       
 174 H174         -16.6075     1.4806     1.9921 H       
 175 H175         -18.0639    -0.7634    -0.6652 H       
 176 H176         -17.9250    -2.0780    -3.2691 H       
 177 H177         -19.2584    -4.0337    -2.5302 H       
 178 H178         -17.6911    -3.9744    -1.6887 H       
 179 H179         -19.1725    -3.4570    -0.8485 H       
 180 H180         -20.4907    -2.6846    -3.8278 H       
 181 H181         -22.3019    -0.7979    -2.5288 H       
 182 H182         -22.8050     0.4494    -4.5743 H       
 183 H183         -19.8009     0.3044    -4.0537 H       
 184 H184         -20.6532     1.6511    -4.8464 H       
 185 H185         -20.9678     1.2840    -3.1333 H       
 186 H186         -20.7427    -1.1680    -5.8233 H       
 187 H187         -24.5422    -0.9155    -4.0220 H       
 188 H188         -24.8018    -3.5353    -5.2857 H       
 189 H189         -26.2557    -2.8232    -2.6996 H       
 190 H190         -26.6602    -4.2123    -3.7365 H       
 191 H191         -24.3634    -5.0997    -3.4438 H       
 192 H192         -23.9589    -3.7106    -2.4069 H       
 193 H193         -25.7386    -4.3804    -0.8154 H       
 194 H194         -26.1431    -5.7694    -1.8523 H       
 195 H195         -23.8462    -6.6568    -1.5595 H       
 196 H196         -23.4417    -5.2678    -0.5226 H       
 197 H197         -25.5884    -7.2068     0.0433 H       
 198 H198         -24.0947    -7.1862     0.7743 H       
 199 H199         -27.4447    -3.7695    -5.7579 H       
 200 H200         -28.6636    -1.1405    -6.1192 H       
 201 H201         -27.8273    -2.8860    -8.4777 H       
 202 H202         -28.9210    -1.4866    -8.5943 H       
 203 H203         -26.0762    -1.3746    -7.4972 H       
 204 H204         -27.2050    -0.5000   -10.1949 H       
 205 H205         -25.5410    -0.2229    -9.6269 H       
 206 H206         -26.1154    -1.8812    -9.9242 H       
 207 H207         -26.4211     1.0740    -7.6812 H       
 208 H208         -28.0851     0.7970    -8.2492 H       
 209 H209         -27.6225     0.3397    -6.5923 H       
 210 H210         -30.8770    -1.6451    -7.5714 H       
 211 H211         -31.8487    -4.3514    -7.0621 H       
 212 H212         -33.0176    -1.9095    -5.6552 H       
 213 H213         -33.7957    -3.5093    -5.7161 H       
 214 H214         -31.8161    -4.5142    -4.6116 H       
 215 H215         -31.0380    -2.9145    -4.5507 H       
 216 H216         -32.9066    -2.0584    -3.1636 H       
 217 H217         -33.6847    -3.6581    -3.2245 H       
 218 H218         -31.0537    -3.9847    -2.2510 H       
 219 H219         -33.8647    -2.7143     0.2949 H       
 220 H220         -30.7520    -4.2209     0.0992 H       
 221 H221         -31.9412    -3.6827     1.1571 H       
 222 H222         -34.4649    -4.2324    -7.6977 H       
 223 H223         -34.4239    -3.0310   -10.3590 H       
 224 H224         -36.5147    -4.6947    -8.8861 H       
 225 H225         -36.6627    -4.1507   -10.5744 H       
 226 H226         -34.5706    -5.3532   -11.1452 H       
 227 H227         -34.4227    -5.8972    -9.4569 H       
 228 H228         -36.1331    -8.6711   -11.1391 H       
 229 H229         -37.2528    -0.7664    -9.7946 H       
 230 H230          17.3365    13.9382   -10.7153 H       
 231 H231          17.2113    12.1678   -10.5807 H       
 232 H232          15.9297    13.0908   -11.4016 H       
 233 H233          16.6288    13.2668    -8.4356 H       
 234 H234          15.3472    14.1898    -9.2565 H       
 235 H235          14.2247    12.0705    -9.8869 H       
 236 H236          15.5063    11.1475    -9.0660 H       
 237 H237          14.9238    12.2465    -6.9209 H       
 238 H238          13.6422    13.1695    -7.7418 H       
 239 H239          12.5197    11.0502    -8.3722 H       
 240 H240          13.8013    10.1272    -7.5513 H       
 241 H241          13.2187    11.2262    -5.4062 H       
 242 H242          11.9372    12.1492    -6.2271 H       
 243 H243          10.8147    10.0300    -6.8575 H       
 244 H244          12.0962     9.1070    -6.0366 H       
 245 H245          11.5137    10.2060    -3.8915 H       
 246 H246          10.2321    11.1290    -4.7124 H       
 247 H247           9.1096     9.0097    -5.3428 H       
 248 H248          10.3912     8.0867    -4.5219 H       
 249 H249           9.8087     9.1857    -2.3767 H       
 250 H250           8.5271    10.1087    -3.1977 H       
 251 H251           7.4046     7.9894    -3.8281 H       
 252 H252           8.6862     7.0664    -3.0071 H       
 253 H253           8.1037     8.1654    -0.8620 H       
 254 H254           6.8221     9.0884    -1.6829 H       
 255 H255           5.6996     6.9692    -2.3133 H       
 256 H256           6.9812     6.0462    -1.4924 H       
 257 H257           6.3986     7.1452     0.6527 H       
 258 H258           5.1171     8.0682    -0.1682 H       
 259 H259           5.2761     5.0259     0.0223 H       
 260 H260           3.9946     5.9489    -0.7986 H       
@<TRIPOS>BOND
   1    1    2 2
   2    1    4 1
   3    1   11 am
   4    3    4 1
   5    3  117 1
   6    3  118 1
   7    4    5 1
   8    4  119 1
   9    5    6 1
  10    5  120 1
  11    5  121 1
  12    6    7 2
  13    6    8 am
  14    8  100 am
  15    8  122 1
  16    9   10 2
  17    9   12 1
  18    9   19 am
  19   11   12 1
  20   11  123 1
  21   12   13 1
  22   12  124 1
  23   13   14 1
  24   13   16 1
  25   13  125 1
  26   14   15 1
  27   14  126 1
  28   14  127 1
  29   15  128 1
  30   15  129 1
  31   15  130 1
  32   16  131 1
  33   16  132 1
  34   16  133 1
  35   17   18 2
  36   17   20 1
  37   17   26 am
  38   19   20 1
  39   19  134 1
  40   20   21 1
  41   20  135 1
  42   21   22 1
  43   21   23 1
  44   21  136 1
  45   22  137 1
  46   22  138 1
  47   22  139 1
  48   23  140 1
  49   23  141 1
  50   23  142 1
  51   24   25 2
  52   24   27 1
  53   24   37 am
  54   26   27 1
  55   26  143 1
  56   27   28 1
  57   27  144 1
  58   28   29 1
  59   28  145 1
  60   28  146 1
  61   29   30 1
  62   29  147 1
  63   29  148 1
  64   30   31 1
  65   30  149 1
  66   30  150 1
  67   31   32 1
  68   31  151 1
  69   32   33 2
  70   32   34 1
  71   33  152 1
  72   34  153 1
  73   34  154 1
  74   35   36 2
  75   35   38 1
  76   35   44 am
  77   37   38 1
  78   37  155 1
  79   38   39 1
  80   38  156 1
  81   39   40 1
  82   39   41 1
  83   39  157 1
  84   40  158 1
  85   40  159 1
  86   40  160 1
  87   41  161 1
  88   41  162 1
  89   41  163 1
  90   42   43 2
  91   42   45 1
  92   42   52 am
  93   44   45 1
  94   44  164 1
  95   45   46 1
  96   45  165 1
  97   46   47 1
  98   46  166 1
  99   46  167 1
 100   47   48 1
 101   47   49 1
 102   47  168 1
 103   48  169 1
 104   48  170 1
 105   48  171 1
 106   49  172 1
 107   49  173 1
 108   49  174 1
 109   50   51 2
 110   50   53 1
 111   50   57 am
 112   52   53 1
 113   52  175 1
 114   53   54 1
 115   53  176 1
 116   54  177 1
 117   54  178 1
 118   54  179 1
 119   55   56 2
 120   55   58 1
 121   55   64 am
 122   57   58 1
 123   57  180 1
 124   58   59 1
 125   58  181 1
 126   59   60 1
 127   59   61 1
 128   59  182 1
 129   60  183 1
 130   60  184 1
 131   60  185 1
 132   61  186 1
 133   62   63 2
 134   62   65 1
 135   62   73 am
 136   64   65 1
 137   64  187 1
 138   65   66 1
 139   65  188 1
 140   66   67 1
 141   66  189 1
 142   66  190 1
 143   67   68 1
 144   67  191 1
 145   67  192 1
 146   68   69 1
 147   68  193 1
 148   68  194 1
 149   69   70 1
 150   69  195 1
 151   69  196 1
 152   70  197 1
 153   70  198 1
 154   71   72 2
 155   71   74 1
 156   71   81 am
 157   73   74 1
 158   73  199 1
 159   74   75 1
 160   74  200 1
 161   75   76 1
 162   75  201 1
 163   75  202 1
 164   76   77 1
 165   76   78 1
 166   76  203 1
 167   77  204 1
 168   77  205 1
 169   77  206 1
 170   78  207 1
 171   78  208 1
 172   78  209 1
 173   79   80 2
 174   79   82 1
 175   79   92 am
 176   81   82 1
 177   81  210 1
 178   82   83 1
 179   82  211 1
 180   83   84 1
 181   83  212 1
 182   83  213 1
 183   84   85 1
 184   84  214 1
 185   84  215 1
 186   85   86 1
 187   85  216 1
 188   85  217 1
 189   86   87 1
 190   86  218 1
 191   87   88 2
 192   87   89 1
 193   88  219 1
 194   89  220 1
 195   89  221 1
 196   90   91 2
 197   90   93 1
 198   90   99 1
 199   92   93 1
 200   92  222 1
 201   93   94 1
 202   93  223 1
 203   94   95 1
 204   94  224 1
 205   94  225 1
 206   95   96 1
 207   95  226 1
 208   95  227 1
 209   96   97 2
 210   96   98 1
 211   98  228 1
 212   99  229 1
 213  100  101 2
 214  100  116 1
 215  102  103 1
 216  102  230 1
 217  102  231 1
 218  102  232 1
 219  103  104 1
 220  103  233 1
 221  103  234 1
 222  104  105 1
 223  104  235 1
 224  104  236 1
 225  105  106 1
 226  105  237 1
 227  105  238 1
 228  106  107 1
 229  106  239 1
 230  106  240 1
 231  107  108 1
 232  107  241 1
 233  107  242 1
 234  108  109 1
 235  108  243 1
 236  108  244 1
 237  109  110 1
 238  109  245 1
 239  109  246 1
 240  110  111 1
 241  110  247 1
 242  110  248 1
 243  111  112 1
 244  111  249 1
 245  111  250 1
 246  112  113 1
 247  112  251 1
 248  112  252 1
 249  113  114 1
 250  113  253 1
 251  113  254 1
 252  114  115 1
 253  114  255 1
 254  114  256 1
 255  115  116 1
 256  115  257 1
 257  115  258 1
 258  116  259 1
 259  116  260 1

#	End of record

