#	Name: ASD01916404
#	Creating user name:	WinNT
#	Creation time:	15. 06. 2019 20:07

#	Modifying user name:	WinNT
#	Modification time:	15. 06. 2019 20:07

#	Program:	/corina/corina34_cracker 3.40 0067  02.08.2006

@<TRIPOS>MOLECULE
ASD01916404
  36   37    0    0    0
SMALL
NO_CHARGES


@<TRIPOS>ATOM
   1 C1            -0.0557     1.4818     0.2614 C.2     
   2 C2            -0.0597    -0.0251     0.2489 C.3     
   3 C3             1.3501    -0.5413     0.5438 C.3     
   4 C4             1.3463    -2.0132     0.5316 C.1     
   5 C5             1.3432    -3.1872     0.5218 C.1     
   6 O6             0.9734     2.0837     0.4843 O.2     
   7 N7            -1.1946     2.1607     0.0195 N.am    
   8 C8             1.3394    -4.6191     0.5099 C.ar    
   9 C9             2.5228    -5.3167     0.7554 C.ar    
  10 C10            2.5027    -6.6999     0.7404 C.ar    
  11 C11            1.3002    -7.3428     0.4805 C.ar    
  12 C12            0.1647    -6.5896     0.2455 C.ar    
  13 N13            0.2086    -5.2731     0.2707 N.ar    
  14 C14           -1.2153     3.5552     0.1328 C.ar    
  15 C15           -0.4996     4.3370    -0.7646 C.ar    
  16 C16           -0.5221     5.7132    -0.6500 C.ar    
  17 C17           -1.2562     6.3127     0.3568 C.ar    
  18 C18           -1.9696     5.5371     1.2522 C.ar    
  19 C19           -1.9562     4.1606     1.1393 C.ar    
  20 C20           -2.4108     1.4386    -0.3622 C.3     
  21 H21           -0.7479    -0.3930     1.0099 H       
  22 H22           -0.3787    -0.3795    -0.7313 H       
  23 H23            2.0383    -0.1734    -0.2172 H       
  24 H24            1.6691    -0.1869     1.5240 H       
  25 H25            3.4412    -4.7843     0.9539 H       
  26 H26            3.4028    -7.2670     0.9265 H       
  27 H27            1.2520    -8.4215     0.4615 H       
  28 H28           -0.7720    -7.0874     0.0427 H       
  29 H29            0.0742     3.8693    -1.5509 H       
  30 H30            0.0346     6.3217    -1.3473 H       
  31 H31           -1.2722     7.3891     0.4443 H       
  32 H32           -2.5417     6.0083     2.0377 H       
  33 H33           -2.5174     3.5556     1.8360 H       
  34 H34           -2.9731     1.1752     0.5337 H       
  35 H35           -3.0239     2.0727    -1.0027 H       
  36 H36           -2.1403     0.5308    -0.9014 H       
@<TRIPOS>BOND
   1    1    2 1
   2    1    6 2
   3    1    7 am
   4    2    3 1
   5    2   21 1
   6    2   22 1
   7    3    4 1
   8    3   23 1
   9    3   24 1
  10    4    5 3
  11    5    8 1
  12    7   14 1
  13    7   20 1
  14    8    9 ar
  15    8   13 ar
  16    9   10 ar
  17    9   25 1
  18   10   11 ar
  19   10   26 1
  20   11   12 ar
  21   11   27 1
  22   12   13 ar
  23   12   28 1
  24   14   15 ar
  25   14   19 ar
  26   15   16 ar
  27   15   29 1
  28   16   17 ar
  29   16   30 1
  30   17   18 ar
  31   17   31 1
  32   18   19 ar
  33   18   32 1
  34   19   33 1
  35   20   34 1
  36   20   35 1
  37   20   36 1

#	End of record

