#	Name: ASD05720163
#	Creating user name:	WinNT
#	Creation time:	15. 06. 2019 21:01

#	Modifying user name:	WinNT
#	Modification time:	15. 06. 2019 21:01

#	Program:	/corina/corina34_cracker 3.40 0067  02.08.2006

@<TRIPOS>MOLECULE
ASD05720163
  49   54    0    0    0
SMALL
NO_CHARGES


@<TRIPOS>ATOM
   1 O1            -0.0161     1.3334     0.0094 O.3     
   2 C2             0.0021    -0.0041     0.0020 C.2     
   3 N3             1.2348    -0.5293    -0.0126 N.am    
   4 C4             2.2183     0.5645    -0.0161 C.3     
   5 C5             1.3508     1.8379    -0.0010 C.3     
   6 O6            -1.0069    -0.6808     0.0087 O.2     
   7 C7             3.0621     0.5136    -1.2636 C.ar    
   8 C8             4.4174     0.7765    -1.1919 C.ar    
   9 C9             5.1924     0.7297    -2.3352 C.ar    
  10 C10            4.6109     0.4193    -3.5528 C.ar    
  11 C11            3.2534     0.1562    -3.6234 C.ar    
  12 C12            2.4814     0.1984    -2.4779 C.ar    
  13 F13            5.3674     0.3737    -4.6712 F       
  14 C14            3.0997    -3.5830    -0.0460 C.2     
  15 N15            2.7934    -2.2820    -0.0360 N.2     
  16 C16            1.5348    -1.8852    -0.0223 C.2     
  17 C17            0.4948    -2.8369    -0.0171 C.2     
  18 C18            0.8012    -4.1541    -0.0267 C.2     
  19 N19            2.1143    -4.5345    -0.0412 N.pl3   
  20 N20            2.7294    -5.7914    -0.0540 N.2     
  21 C21            4.0305    -5.6364    -0.0661 C.2     
  22 C22            4.3226    -4.2670    -0.0674 C.2     
  23 C23            5.6706    -3.6561    -0.0859 C.ar    
  24 C24            6.6416    -4.0791     0.8236 C.ar    
  25 C25            7.8955    -3.5104     0.8059 C.ar    
  26 C26            8.1956    -2.5119    -0.1206 C.ar    
  27 C27            7.2260    -2.0887    -1.0296 C.ar    
  28 C28            5.9735    -2.6607    -1.0167 C.ar    
  29 N29           11.2841    -0.6732    -0.6295 N.pl3   
  30 N30            9.9485    -0.9540    -0.9602 N.2     
  31 C31            9.5462    -1.8994    -0.1388 C.2     
  32 N32           10.5590    -2.2168     0.6794 N.2     
  33 C33           11.6044    -1.4870     0.3926 C.2     
  34 H34            2.8457     0.5180     0.8740 H       
  35 H35            1.5314     2.4339    -0.8956 H       
  36 H36            1.5485     2.4243     0.8964 H       
  37 H37            4.8707     1.0190    -0.2421 H       
  38 H38            6.2511     0.9355    -2.2790 H       
  39 H39            2.7987    -0.0861    -4.5726 H       
  40 H40            1.4232    -0.0109    -2.5321 H       
  41 H41           -0.5367    -2.5172    -0.0052 H       
  42 H42            0.0174    -4.8972    -0.0225 H       
  43 H43            4.7584    -6.4342    -0.0770 H       
  44 H44            6.4092    -4.8521     1.5413 H       
  45 H45            8.6466    -3.8373     1.5097 H       
  46 H46            7.4591    -1.3155    -1.7467 H       
  47 H47            5.2243    -2.3363    -1.7238 H       
  48 H48           11.8633    -0.0231    -1.0569 H       
  49 H49           12.5617    -1.5301     0.8907 H       
@<TRIPOS>BOND
   1    1    2 1
   2    1    5 1
   3    2    3 am
   4    2    6 2
   5    3    4 1
   6    3   16 1
   7    4    5 1
   8    4    7 1
   9    4   34 1
  10    5   35 1
  11    5   36 1
  12    7    8 ar
  13    7   12 ar
  14    8    9 ar
  15    8   37 1
  16    9   10 ar
  17    9   38 1
  18   10   11 ar
  19   10   13 1
  20   11   12 ar
  21   11   39 1
  22   12   40 1
  23   14   15 1
  24   14   19 1
  25   14   22 2
  26   15   16 2
  27   16   17 1
  28   17   18 2
  29   17   41 1
  30   18   19 1
  31   18   42 1
  32   19   20 1
  33   20   21 2
  34   21   22 1
  35   21   43 1
  36   22   23 1
  37   23   24 ar
  38   23   28 ar
  39   24   25 ar
  40   24   44 1
  41   25   26 ar
  42   25   45 1
  43   26   27 ar
  44   26   31 1
  45   27   28 ar
  46   27   46 1
  47   28   47 1
  48   29   30 1
  49   29   33 1
  50   29   48 1
  51   30   31 2
  52   31   32 1
  53   32   33 2
  54   33   49 1

#	End of record

