#	Name: ASD08178127
#	Creating user name:	WinNT
#	Creation time:	15. 06. 2019 21:18

#	Modifying user name:	WinNT
#	Modification time:	15. 06. 2019 21:18

#	Program:	/corina/corina34_cracker 3.40 0067  02.08.2006

@<TRIPOS>MOLECULE
ASD08178127
  86   91    0    0    0
SMALL
NO_CHARGES


@<TRIPOS>ATOM
   1 C1            -0.0184     1.5028     0.0103 C.2     
   2 C2             0.0021    -0.0041     0.0020 C.3     
   3 C3             0.0221    -0.5218     1.4416 C.3     
   4 C4             0.0429    -2.0516     1.4332 C.3     
   5 C5             0.0630    -2.5693     2.8728 C.3     
   6 C6             0.0834    -4.0761     2.8645 C.2     
   7 N7             1.1396    -4.8258     2.8513 N.2     
   8 N8             0.9467    -6.0734     2.8463 N.2     
   9 C9            -0.2824    -6.4936     2.8547 C.2     
  10 S10           -1.3267    -5.1359     2.8788 S.3     
  11 N11           -0.6838    -7.8252     2.8506 N.am    
  12 N12            1.0171     2.2809     0.0046 N.2     
  13 C13            0.2391    -8.8073     2.8374 C.2     
  14 O14            1.4197    -8.5298     2.8290 O.2     
  15 C15           -0.1960   -10.2501     2.8329 C.3     
  16 C16            1.0193   -11.1412     2.8177 C.ar    
  17 N17            0.7904     3.5228     0.0134 N.2     
  18 C18           -0.4495     3.9094     0.0274 C.2     
  19 S19           -1.4568     2.5237     0.0218 S.3     
  20 C20            2.6813   -12.3605     1.5907 C.ar    
  21 C21            1.5847   -11.5551     4.0067 C.ar    
  22 C22            2.7085   -12.3791     3.9911 C.ar    
  23 C23            3.2550   -12.7805     2.7735 C.ar    
  24 C24            1.5625   -11.5472     1.6122 C.ar    
  25 N25           -0.8870     5.2295     0.0390 N.am    
  26 C26            0.0089     6.2364     0.0358 C.2     
  27 O27            1.1967     5.9912     0.0228 O.2     
  28 C28           -0.4651     7.6668     0.0485 C.3     
  29 C29            0.7256     8.5906     0.0419 C.ar    
  30 C30            1.2591     9.0205    -1.1597 C.ar    
  31 C31            2.3516     9.8689    -1.1733 C.ar    
  32 C32            2.9154    10.2912     0.0135 C.ar    
  33 C33            2.3820     9.8613     1.2272 C.ar    
  34 C34            1.2780     9.0107     1.2348 C.ar    
  35 C35            2.9839    10.3113     2.5060 C.ar    
  36 C36            4.3632    10.2067     2.7080 C.ar    
  37 C37            4.9170    10.6296     3.9059 C.ar    
  38 C38            4.1077    11.1527     4.8963 C.ar    
  39 C39            2.7419    11.2575     4.6991 C.ar    
  40 C40            2.1779    10.8454     3.5088 C.ar    
  41 O41            5.1577     9.6919     1.7339 O.3     
  42 C42            6.5575     9.6158     2.0111 C.3     
  43 C43            3.3210   -12.8269     5.2657 C.ar    
  44 C44            3.6016   -14.1808     5.4723 C.ar    
  45 C45            4.1739   -14.5903     6.6662 C.ar    
  46 C46            4.4656   -13.6627     7.6480 C.ar    
  47 C47            4.1889   -12.3219     7.4463 C.ar    
  48 C48            3.6244   -11.8996     6.2599 C.ar    
  49 O49            3.3140   -15.0917     4.5065 O.3     
  50 C50            3.6285   -16.4569     4.7880 C.3     
  51 H51           -0.8875    -0.3767    -0.5057 H       
  52 H52            0.8922    -0.3525    -0.5218 H       
  53 H53            0.9118    -0.1491     1.9494 H       
  54 H54           -0.8680    -0.1733     1.9655 H       
  55 H55           -0.8467    -2.4242     0.9255 H       
  56 H56            0.9330    -2.4000     0.9094 H       
  57 H57            0.9526    -2.1967     3.3806 H       
  58 H58           -0.8271    -2.2209     3.3967 H       
  59 H59           -1.6281    -8.0470     2.8573 H       
  60 H60           -0.7854   -10.4546     3.7267 H       
  61 H61           -0.8003   -10.4446     1.9469 H       
  62 H62            3.1013   -12.6745     0.6466 H       
  63 H63            1.1573   -11.2408     4.9474 H       
  64 H64            4.1257   -13.4193     2.7556 H       
  65 H65            1.1168   -11.2209     0.6842 H       
  66 H66           -1.8369     5.4256     0.0495 H       
  67 H67           -1.0758     7.8550    -0.8345 H       
  68 H68           -1.0583     7.8451     0.9454 H       
  69 H69            0.8214     8.6923    -2.0908 H       
  70 H70            2.7644    10.2011    -2.1143 H       
  71 H71            3.7686    10.9533     0.0018 H       
  72 H72            0.8603     8.6748     2.1725 H       
  73 H73            5.9822    10.5500     4.0657 H       
  74 H74            4.5429    11.4809     5.8286 H       
  75 H75            2.1157    11.6673     5.4778 H       
  76 H76            1.1117    10.9291     3.3583 H       
  77 H77            6.9442    10.6161     2.2063 H       
  78 H78            6.7210     8.9861     2.8856 H       
  79 H79            7.0751     9.1873     1.1529 H       
  80 H80            4.3918   -15.6354     6.8295 H       
  81 H81            4.9112   -13.9857     8.5773 H       
  82 H82            4.4197   -11.6028     8.2183 H       
  83 H83            3.4102   -10.8523     6.1058 H       
  84 H84            4.6987   -16.5528     4.9717 H       
  85 H85            3.0778   -16.7821     5.6706 H       
  86 H86            3.3490   -17.0772     3.9364 H       
@<TRIPOS>BOND
   1    1    2 1
   2    1   12 2
   3    1   19 1
   4    2    3 1
   5    2   51 1
   6    2   52 1
   7    3    4 1
   8    3   53 1
   9    3   54 1
  10    4    5 1
  11    4   55 1
  12    4   56 1
  13    5    6 1
  14    5   57 1
  15    5   58 1
  16    6    7 2
  17    6   10 1
  18    7    8 1
  19    8    9 2
  20    9   10 1
  21    9   11 1
  22   11   13 am
  23   11   59 1
  24   12   17 1
  25   13   14 2
  26   13   15 1
  27   15   16 1
  28   15   60 1
  29   15   61 1
  30   16   21 ar
  31   16   24 ar
  32   17   18 2
  33   18   19 1
  34   18   25 1
  35   20   24 ar
  36   20   23 ar
  37   20   62 1
  38   21   22 ar
  39   21   63 1
  40   22   23 ar
  41   22   43 1
  42   23   64 1
  43   24   65 1
  44   25   26 am
  45   25   66 1
  46   26   27 2
  47   26   28 1
  48   28   29 1
  49   28   67 1
  50   28   68 1
  51   29   30 ar
  52   29   34 ar
  53   30   31 ar
  54   30   69 1
  55   31   32 ar
  56   31   70 1
  57   32   33 ar
  58   32   71 1
  59   33   34 ar
  60   33   35 1
  61   34   72 1
  62   35   36 ar
  63   35   40 ar
  64   36   37 ar
  65   36   41 1
  66   37   38 ar
  67   37   73 1
  68   38   39 ar
  69   38   74 1
  70   39   40 ar
  71   39   75 1
  72   40   76 1
  73   41   42 1
  74   42   77 1
  75   42   78 1
  76   42   79 1
  77   43   44 ar
  78   43   48 ar
  79   44   45 ar
  80   44   49 1
  81   45   46 ar
  82   45   80 1
  83   46   47 ar
  84   46   81 1
  85   47   48 ar
  86   47   82 1
  87   48   83 1
  88   49   50 1
  89   50   84 1
  90   50   85 1
  91   50   86 1

#	End of record

