#	Name: ASD01030032
#	Creating user name:	WinNT
#	Creation time:	15. 06. 2019 18:58

#	Modifying user name:	WinNT
#	Modification time:	15. 06. 2019 18:58

#	Program:	/corina/corina34_cracker 3.40 0067  02.08.2006

@<TRIPOS>MOLECULE
ASD01030032
  65   64    0    0    0
SMALL
NO_CHARGES


@<TRIPOS>ATOM
   1 P1             0.2163     1.8856    -0.8799 P.3     
   2 O2            -0.4416     1.2967     0.3079 O.2     
   3 O3             1.7390     2.2631    -0.5179 O.3     
   4 O4            -2.2686     5.2111    -1.5640 O.3     
   5 O5             0.1999     0.8196    -2.0863 O.3     
   6 O6            -0.5742     3.2148    -1.3275 O.3     
   7 P7            -2.1315     3.6140    -1.4145 P.3     
   8 O8            -2.8235     3.1725    -0.1830 O.2     
   9 O9            -2.7989     2.8962    -2.6918 O.3     
  10 C10            2.6699     1.3180     0.0134 C.3     
  11 C11            3.9984     1.9932     0.2380 C.2     
  12 C12            5.1048     1.4055    -0.1448 C.2     
  13 C13            5.0614     0.0040    -0.6971 C.3     
  14 C14            6.4210     2.1308    -0.0327 C.3     
  15 C15            7.1036     1.7486     1.2821 C.3     
  16 C16            8.4198     2.4740     1.3942 C.2     
  17 C17            8.6494     3.2602     2.4165 C.2     
  18 C18            7.5930     3.4482     3.4747 C.3     
  19 C19            9.9699     3.9767     2.5344 C.3     
  20 C20            9.8409     5.3838     1.9475 C.3     
  21 C21           11.1614     6.1003     2.0654 C.2     
  22 C22           11.7552     6.5602     0.9921 C.2     
  23 C23           11.1233     6.3628    -0.3617 C.3     
  24 C24           13.0702     7.2867     1.1112 C.3     
  25 C25           14.2190     6.3028     0.8811 C.3     
  26 C26           15.5340     7.0293     1.0002 C.2     
  27 C27           16.4216     6.6371     1.8802 C.2     
  28 C28           16.0837     5.5359     2.8520 C.3     
  29 C29           17.7806     7.2871     1.9208 C.3     
  30 H30           -3.1818     5.5238    -1.6221 H       
  31 H31            0.6156     1.1388    -2.8989 H       
  32 H32           -2.3944     3.1395    -3.5357 H       
  33 H33            2.2942     0.9312     0.9607 H       
  34 H34            2.7948     0.4956    -0.6909 H       
  35 H35            4.0382     2.9616     0.7144 H       
  36 H36            4.8539     0.0412    -1.7665 H       
  37 H37            6.0226    -0.4822    -0.5302 H       
  38 H38            4.2764    -0.5606    -0.1941 H       
  39 H39            7.0618     1.8521    -0.8692 H       
  40 H40            6.2458     3.2065    -0.0519 H       
  41 H41            6.4628     2.0273     2.1186 H       
  42 H42            7.2788     0.6730     1.3013 H       
  43 H43            9.1738     2.3456     0.6316 H       
  44 H44            7.6530     2.6339     4.1967 H       
  45 H45            7.7542     4.3982     3.9843 H       
  46 H46            6.6078     3.4486     3.0085 H       
  47 H47           10.2534     4.0457     3.5847 H       
  48 H48           10.7335     3.4236     1.9876 H       
  49 H49            9.5574     5.3148     0.8973 H       
  50 H50            9.0773     5.9370     2.4944 H       
  51 H51           11.6183     6.2346     3.0348 H       
  52 H52           10.3871     7.1473    -0.5369 H       
  53 H53           11.8931     6.4084    -1.1321 H       
  54 H54           10.6327     5.3901    -0.3953 H       
  55 H55           13.1160     8.0798     0.3649 H       
  56 H56           13.1569     7.7200     2.1076 H       
  57 H57           14.1732     5.5097     1.6274 H       
  58 H58           14.1322     5.8695    -0.1153 H       
  59 H59           15.7446     7.8732     0.3600 H       
  60 H60           16.2684     4.5690     2.3839 H       
  61 H61           16.7053     5.6334     3.7420 H       
  62 H62           15.0330     5.6089     3.1327 H       
  63 H63           17.7548     8.1411     2.5978 H       
  64 H64           18.5179     6.5660     2.2736 H       
  65 H65           18.0520     7.6245     0.9205 H       
@<TRIPOS>BOND
   1    1    2 2
   2    1    3 1
   3    1    5 1
   4    1    6 1
   5    3   10 1
   6    4    7 1
   7    4   30 1
   8    5   31 1
   9    6    7 1
  10    7    8 2
  11    7    9 1
  12    9   32 1
  13   10   11 1
  14   10   33 1
  15   10   34 1
  16   11   12 2
  17   11   35 1
  18   12   13 1
  19   12   14 1
  20   13   36 1
  21   13   37 1
  22   13   38 1
  23   14   15 1
  24   14   39 1
  25   14   40 1
  26   15   16 1
  27   15   41 1
  28   15   42 1
  29   16   17 2
  30   16   43 1
  31   17   18 1
  32   17   19 1
  33   18   44 1
  34   18   45 1
  35   18   46 1
  36   19   20 1
  37   19   47 1
  38   19   48 1
  39   20   21 1
  40   20   49 1
  41   20   50 1
  42   21   22 2
  43   21   51 1
  44   22   23 1
  45   22   24 1
  46   23   52 1
  47   23   53 1
  48   23   54 1
  49   24   25 1
  50   24   55 1
  51   24   56 1
  52   25   26 1
  53   25   57 1
  54   25   58 1
  55   26   27 2
  56   26   59 1
  57   27   28 1
  58   27   29 1
  59   28   60 1
  60   28   61 1
  61   28   62 1
  62   29   63 1
  63   29   64 1
  64   29   65 1

#	End of record

