#	Name: ASD05430564
#	Creating user name:	WinNT
#	Creation time:	15. 06. 2019 21:00

#	Modifying user name:	WinNT
#	Modification time:	15. 06. 2019 21:00

#	Program:	/corina/corina34_cracker 3.40 0067  02.08.2006

@<TRIPOS>MOLECULE
ASD05430564
  33   34    0    0    0
SMALL
NO_CHARGES


@<TRIPOS>ATOM
   1 C1            -0.0168     1.3885     0.0097 C.ar    
   2 C2             0.0021    -0.0041     0.0020 C.ar    
   3 C3             1.1756     2.0938     0.0021 C.ar    
   4 C4             2.3803     1.4160    -0.0135 C.ar    
   5 C5             2.3990     0.0336    -0.0211 C.ar    
   6 C6             1.2132    -0.6767    -0.0129 C.ar    
   7 C7             1.1594     3.6007     0.0103 C.3     
   8 C8             1.2377    -2.1835    -0.0214 C.3     
   9 C9             1.9543    -2.6748    -1.2808 C.3     
  10 C10            1.9800    -2.6885     1.2175 C.3     
  11 C11            1.8870     4.1118     1.2554 C.3     
  12 C12            1.8631     4.1252    -1.2429 C.3     
  13 O13           -1.2852    -0.4579     0.0111 O.3     
  14 C14           -2.0919     0.6661    -0.3878 C.3     
  15 O15           -1.3160     1.8071     0.0188 O.3     
  16 F16           -2.2764     0.6712    -1.7746 F       
  17 F17           -3.3247     0.6457     0.2733 F       
  18 H18            3.3088     1.9675    -0.0202 H       
  19 H19            3.3422    -0.4924    -0.0333 H       
  20 H20            0.1279     3.9529     0.0221 H       
  21 H21            0.2162    -2.5636    -0.0130 H       
  22 H22            2.9759    -2.2947    -1.2892 H       
  23 H23            1.9721    -3.7646    -1.2870 H       
  24 H24            1.4255    -2.3150    -2.1634 H       
  25 H25            1.4695    -2.3386     2.1147 H       
  26 H26            1.9978    -3.7784     1.2113 H       
  27 H27            3.0016    -2.3084     1.2091 H       
  28 H28            2.9184     3.7596     1.2437 H       
  29 H29            1.8752     5.2017     1.2614 H       
  30 H30            1.3856     3.7381     2.1483 H       
  31 H31            1.3447     3.7611    -2.1299 H       
  32 H32            1.8513     5.2151    -1.2369 H       
  33 H33            2.8946     3.7730    -1.2546 H       
@<TRIPOS>BOND
   1    1    2 ar
   2    1    3 ar
   3    1   15 1
   4    2   13 1
   5    2    6 ar
   6    3    4 ar
   7    3    7 1
   8    4    5 ar
   9    4   18 1
  10    5    6 ar
  11    5   19 1
  12    6    8 1
  13    7   11 1
  14    7   12 1
  15    7   20 1
  16    8    9 1
  17    8   10 1
  18    8   21 1
  19    9   22 1
  20    9   23 1
  21    9   24 1
  22   10   25 1
  23   10   26 1
  24   10   27 1
  25   11   28 1
  26   11   29 1
  27   11   30 1
  28   12   31 1
  29   12   32 1
  30   12   33 1
  31   13   14 1
  32   14   15 1
  33   14   16 1
  34   14   17 1

#	End of record

