#	Name: ASD01903290
#	Creating user name:	WinNT
#	Creation time:	15. 06. 2019 19:54

#	Modifying user name:	WinNT
#	Modification time:	15. 06. 2019 19:54

#	Program:	/corina/corina34_cracker 3.40 0067  02.08.2006

@<TRIPOS>MOLECULE
ASD01903290
  39   42    0    0    0
SMALL
NO_CHARGES


@<TRIPOS>ATOM
   1 C1             0.0313     1.3112     0.0785 C.ar    
   2 C2            -1.0993     1.6199    -0.6604 C.ar    
   3 C3            -1.0989     2.7502    -1.4632 C.ar    
   4 C4             0.0419     3.5362    -1.4974 C.ar    
   5 C5             1.1426     3.1653    -0.7280 C.ar    
   6 N6             1.1010     2.0748     0.0275 N.ar    
   7 C7             2.3696     3.9948    -0.7534 C.2     
   8 O8             2.4132     4.9943    -1.4435 O.2     
   9 N9             3.4376     3.6411    -0.0113 N.am    
  10 C10            4.6295     4.3682    -0.1092 C.ar    
  11 C11            4.5905     5.7429    -0.3045 C.ar    
  12 C12            5.7662     6.4598    -0.4005 C.ar    
  13 C13            6.9876     5.8070    -0.3023 C.ar    
  14 C14            7.0269     4.4329    -0.1071 C.ar    
  15 C15            5.8515     3.7162    -0.0053 C.ar    
  16 N16            8.1823     6.5350    -0.4063 N.am    
  17 C17            8.2489     7.8652    -0.5953 C.2     
  18 C18            9.6718     8.2619    -0.6513 C.ar    
  19 C19           10.4106     7.0729    -0.4822 C.ar    
  20 C20            9.4118     5.9955    -0.3242 C.2     
  21 O21            7.2992     8.6146    -0.7020 O.2     
  22 O22            9.6596     4.8185    -0.1554 O.2     
  23 C23           11.7218     9.4937    -0.8245 C.ar    
  24 C24           12.4461     8.3265    -0.6584 C.ar    
  25 C25           11.7960     7.1150    -0.4871 C.ar    
  26 C26           10.3342     9.4663    -0.8217 C.ar    
  27 Cl27          12.5542    11.0022    -1.0373 Cl      
  28 H28            0.0327     0.4339     0.7085 H       
  29 H29           -1.9724     0.9861    -0.6117 H       
  30 H30           -1.9677     3.0119    -2.0489 H       
  31 H31            0.0773     4.4236    -2.1120 H       
  32 H32            3.3803     2.8826     0.5906 H       
  33 H33            3.6405     6.2507    -0.3816 H       
  34 H34            5.7359     7.5287    -0.5524 H       
  35 H35            7.9771     3.9253    -0.0308 H       
  36 H36            5.8821     2.6474     0.1469 H       
  37 H37           13.5256     8.3600    -0.6624 H       
  38 H38           12.3664     6.2072    -0.3576 H       
  39 H39            9.7734    10.3800    -0.9520 H       
@<TRIPOS>BOND
   1    1    2 ar
   2    1    6 ar
   3    1   28 1
   4    2    3 ar
   5    2   29 1
   6    3    4 ar
   7    3   30 1
   8    4    5 ar
   9    4   31 1
  10    5    6 ar
  11    5    7 1
  12    7    8 2
  13    7    9 am
  14    9   10 1
  15    9   32 1
  16   10   11 ar
  17   10   15 ar
  18   11   12 ar
  19   11   33 1
  20   12   13 ar
  21   12   34 1
  22   13   14 ar
  23   13   16 1
  24   14   15 ar
  25   14   35 1
  26   15   36 1
  27   16   17 am
  28   16   20 am
  29   17   18 1
  30   17   21 2
  31   18   19 ar
  32   18   26 ar
  33   19   20 1
  34   19   25 ar
  35   20   22 2
  36   23   24 ar
  37   23   27 1
  38   23   26 ar
  39   24   25 ar
  40   24   37 1
  41   25   38 1
  42   26   39 1

#	End of record

