#	Name: ASD00840940
#	Creating user name:	WinNT
#	Creation time:	15. 06. 2019 18:40

#	Modifying user name:	WinNT
#	Modification time:	15. 06. 2019 18:40

#	Program:	/corina/corina34_cracker 3.40 0067  02.08.2006

@<TRIPOS>MOLECULE
ASD00840940
  91   96    0    0    0
SMALL
NO_CHARGES


@<TRIPOS>ATOM
   1 F1             6.0041    -1.9453    -2.0997 F       
   2 N2             0.9758     1.4238    -0.8201 N.ar    
   3 C3             1.2528     0.1335    -0.9061 C.ar    
   4 C4             1.1969    -0.6789     0.2194 C.ar    
   5 C5             0.8468    -0.1205     1.4361 C.ar    
   6 C6             0.5635     1.2377     1.4842 C.ar    
   7 C7             0.6390     1.9848     0.3258 C.ar    
   8 C8             1.5129    -2.1489     0.1165 C.3     
   9 C9             1.2571    -2.8401     1.4388 C.2     
  10 C10            0.6861    -2.7969    -0.9959 C.3     
  11 C11           -0.7757    -2.5117    -0.7663 C.2     
  12 N12           -1.7033    -3.0467    -1.5848 N.am    
  13 O13           -1.1176    -1.8009     0.1550 O.2     
  14 C14           -3.1208    -2.6858    -1.4470 C.3     
  15 C15           -3.9451    -3.9694    -1.3075 C.3     
  16 C16           -3.6442    -4.8951    -2.4885 C.3     
  17 C17           -2.1606    -5.2704    -2.4795 C.3     
  18 C18           -1.3153    -3.9972    -2.6359 C.3     
  19 N19           -4.4578    -6.1129    -2.3754 N.3     
  20 C20           -4.2840    -6.9737    -3.5538 C.3     
  21 C21           -5.0837    -8.2644    -3.3618 C.3     
  22 N22           -6.5012    -7.9339    -3.1591 N.3     
  23 C23           -6.6750    -7.0732    -1.9807 C.3     
  24 C24           -5.8753    -5.7824    -2.1727 C.3     
  25 H25           -6.8933    -7.5028    -3.9827 H       
  26 O26            0.1935    -2.9189     2.0165 O.2     
  27 N27            2.4293    -3.3503     1.8520 N.am    
  28 C28            2.9899    -2.3571    -0.1278 C.ar    
  29 C29            3.4666    -3.0846     0.9555 C.ar    
  30 C30            3.8323    -1.9754    -1.1478 C.ar    
  31 C31            5.1741    -2.3174    -1.1007 C.ar    
  32 C32            5.6619    -3.0435    -0.0247 C.ar    
  33 C33            4.8163    -3.4263     0.9987 C.ar    
  34 F34            6.9700    -3.3780     0.0232 F       
  35 C35            2.3464    -5.8970     2.8924 C.ar    
  36 C36            1.0916    -6.3220     2.4801 C.ar    
  37 C37            3.3816    -6.8053     3.0075 C.ar    
  38 C38            3.1701    -8.1382     2.7121 C.ar    
  39 C39            1.9167    -8.5683     2.2994 C.ar    
  40 C40            0.8767    -7.6593     2.1835 C.ar    
  41 O41            1.7092    -9.8797     2.0094 O.3     
  42 O42            0.0739    -5.4284     2.3675 O.3     
  43 C43            2.8258   -10.7601     2.1513 C.3     
  44 C44           -1.1908    -5.9363     1.9377 C.3     
  45 C45           -2.2040    -4.7918     1.8712 C.3     
  46 S46            2.6221    -4.1965     3.2624 S.o2    
  47 O47            3.9935    -4.0800     3.6160 O.2     
  48 O48            1.5618    -3.7952     4.1192 O.2     
  49 O49            1.5943    -0.4020    -2.1050 O.3     
  50 C50            2.0554    -0.2792    -4.4742 C.3     
  51 C51            1.5252     0.4590    -3.2434 C.3     
  52 H52            0.7948    -0.7275     2.3279 H       
  53 H53            0.2868     1.7048     2.4178 H       
  54 H54            0.4199     3.0419     0.3579 H       
  55 H55            0.9893    -2.3874    -1.9595 H       
  56 H56            0.8514    -3.8743    -0.9908 H       
  57 H57           -3.2557    -2.0667    -0.5601 H       
  58 H58           -3.4458    -2.1371    -2.3310 H       
  59 H59           -3.6826    -4.4710    -0.3760 H       
  60 H60           -5.0065    -3.7213    -1.3009 H       
  61 H61           -3.8838    -4.3838    -3.4208 H       
  62 H62           -1.9148    -5.7597    -1.5370 H       
  63 H63           -1.9518    -5.9483    -3.3071 H       
  64 H64           -1.4943    -3.5581    -3.6173 H       
  65 H65           -0.2589    -4.2448    -2.5312 H       
  66 H66           -4.6429    -6.4521    -4.4412 H       
  67 H67           -3.2280    -7.2148    -3.6755 H       
  68 H68           -4.9796    -8.8918    -4.2471 H       
  69 H69           -4.7068    -8.7995    -2.4902 H       
  70 H70           -7.7310    -6.8321    -1.8590 H       
  71 H71           -6.3161    -7.5947    -1.0933 H       
  72 H72           -5.9794    -5.1550    -1.2874 H       
  73 H73           -6.2522    -5.2474    -3.0443 H       
  74 H74            3.4474    -1.4103    -1.9839 H       
  75 H75            5.2026    -3.9913     1.8340 H       
  76 H76            4.3576    -6.4725     3.3285 H       
  77 H77            3.9809    -8.8460     2.8022 H       
  78 H78           -0.0994    -7.9922     1.8628 H       
  79 H79            3.1753   -10.7401     3.1836 H       
  80 H80            2.5245   -11.7743     1.8893 H       
  81 H81            3.6294   -10.4374     1.4894 H       
  82 H82           -1.0853    -6.3860     0.9504 H       
  83 H83           -1.5391    -6.6894     2.6446 H       
  84 H84           -1.8557    -4.0388     1.1644 H       
  85 H85           -3.1687    -5.1792     1.5434 H       
  86 H86           -2.3096    -4.3422     2.8585 H       
  87 H87            2.0847     0.4039    -5.3230 H       
  88 H88            3.0603    -0.6495    -4.2709 H       
  89 H89            1.3990    -1.1181    -4.7054 H       
  90 H90            0.4896     0.7530    -3.4143 H       
  91 H91            2.1304     1.3477    -3.0641 H       
@<TRIPOS>BOND
   1    1   31 1
   2    2    3 ar
   3    2    7 ar
   4    3    4 ar
   5    3   49 1
   6    4    5 ar
   7    4    8 1
   8    5    6 ar
   9    5   52 1
  10    6    7 ar
  11    6   53 1
  12    7   54 1
  13    8    9 1
  14    8   10 1
  15    8   28 1
  16    9   26 2
  17    9   27 am
  18   10   11 1
  19   10   55 1
  20   10   56 1
  21   11   12 am
  22   11   13 2
  23   12   14 1
  24   12   18 1
  25   14   15 1
  26   14   57 1
  27   14   58 1
  28   15   16 1
  29   15   59 1
  30   15   60 1
  31   16   17 1
  32   16   19 1
  33   16   61 1
  34   17   18 1
  35   17   62 1
  36   17   63 1
  37   18   64 1
  38   18   65 1
  39   19   20 1
  40   19   24 1
  41   20   21 1
  42   20   66 1
  43   20   67 1
  44   21   22 1
  45   21   68 1
  46   21   69 1
  47   22   23 1
  48   22   25 1
  49   23   24 1
  50   23   70 1
  51   23   71 1
  52   24   72 1
  53   24   73 1
  54   27   46 am
  55   27   29 1
  56   28   29 ar
  57   28   30 ar
  58   29   33 ar
  59   30   31 ar
  60   30   74 1
  61   31   32 ar
  62   32   33 ar
  63   32   34 1
  64   33   75 1
  65   35   36 ar
  66   35   37 ar
  67   35   46 1
  68   36   42 1
  69   36   40 ar
  70   37   38 ar
  71   37   76 1
  72   38   39 ar
  73   38   77 1
  74   39   40 ar
  75   39   41 1
  76   40   78 1
  77   41   43 1
  78   42   44 1
  79   43   79 1
  80   43   80 1
  81   43   81 1
  82   44   45 1
  83   44   82 1
  84   44   83 1
  85   45   84 1
  86   45   85 1
  87   45   86 1
  88   46   47 2
  89   46   48 2
  90   49   51 1
  91   50   51 1
  92   50   87 1
  93   50   88 1
  94   50   89 1
  95   51   90 1
  96   51   91 1

#	End of record

