#	Name: ASD01816717
#	Creating user name:	WinNT
#	Creation time:	15. 06. 2019 19:35

#	Modifying user name:	WinNT
#	Modification time:	15. 06. 2019 19:35

#	Program:	/corina/corina34_cracker 3.40 0067  02.08.2006

@<TRIPOS>MOLECULE
ASD01816717
  62   66    0    0    0
SMALL
NO_CHARGES


@<TRIPOS>ATOM
   1 C1             0.0340     1.4475     0.9125 C.2     
   2 C2             0.0049     0.0796     0.6087 C.2     
   3 C3             1.1662    -0.5632     0.2938 C.2     
   4 C4             2.3722     0.1573     0.2792 C.2     
   5 N5             2.3714     1.4924     0.5803 N.am    
   6 C6             1.2043     2.1243     0.8932 C.2     
   7 C7             3.5670    -0.5003    -0.0439 C.2     
   8 C8             4.7441     0.1910    -0.0603 C.2     
   9 C9             4.7390     1.5629     0.2492 C.2     
  10 C10            3.5216     2.1959     0.5704 C.2     
  11 C11            3.5524    -1.9709    -0.3727 C.3     
  12 O12            3.5082     3.3853     0.8397 O.2     
  13 C13            5.9898     2.3279     0.2385 C.2     
  14 N14            7.1646     1.6960     0.0462 N.am    
  15 O15            5.9672     3.5338     0.4034 O.2     
  16 N16            3.4718    -2.1463    -1.8290 N.3     
  17 C17            3.6929    -3.5490    -2.2031 C.3     
  18 C18            3.7467    -3.6692    -3.7278 C.3     
  19 C19            2.4286    -3.1648    -4.3216 C.3     
  20 C20            2.1984    -1.7177    -3.8772 C.3     
  21 C21            2.1894    -1.6540    -2.3482 C.3     
  22 C22            2.4982    -3.2246    -5.8258 C.ar    
  23 N23            3.6661    -3.3770    -6.4185 N.ar    
  24 C24            1.3200    -4.0079    -3.8452 C.1     
  25 N25            0.4644    -4.6586    -3.4776 N.1     
  26 C26            3.7752    -3.4347    -7.7316 C.ar    
  27 C27            2.6579    -3.3360    -8.5386 C.ar    
  28 C28            1.4121    -3.1750    -7.9512 C.ar    
  29 C29            1.3363    -3.1248    -6.5679 C.ar    
  30 C30            8.3484     2.4368    -0.0658 C.ar    
  31 C31            9.5826     1.8167     0.1281 C.ar    
  32 C32           10.7508     2.5559     0.0152 C.ar    
  33 C33           10.6896     3.9030    -0.2885 C.ar    
  34 C34            9.4659     4.5178    -0.4802 C.ar    
  35 C35            8.2968     3.7876    -0.3754 C.ar    
  36 N36            9.6421     0.4531     0.4359 N.pl3   
  37 H37           -0.8822     1.9637     1.1584 H       
  38 H38           -0.9296    -0.4616     0.6243 H       
  39 H39            1.1586    -1.6171     0.0580 H       
  40 H40            1.2150     3.1781     1.1292 H       
  41 H41            5.6684    -0.3098    -0.3077 H       
  42 H42            4.4655    -2.4355    -0.0007 H       
  43 H43            2.6883    -2.4399     0.0981 H       
  44 H44            7.1905     0.7282    -0.0147 H       
  45 H45            4.6354    -3.8940    -1.7781 H       
  46 H46            2.8762    -4.1603    -1.8192 H       
  47 H47            4.5719    -3.0690    -4.1113 H       
  48 H48            3.8952    -4.7127    -4.0056 H       
  49 H49            2.9991    -1.0868    -4.2630 H       
  50 H50            1.2406    -1.3669    -4.2616 H       
  51 H51            1.3798    -2.2743    -1.9636 H       
  52 H52            2.0400    -0.6227    -2.0285 H       
  53 H53            4.7490    -3.5602    -8.1813 H       
  54 H54            2.7537    -3.3833    -9.6133 H       
  55 H55            0.5215    -3.0947    -8.5569 H       
  56 H56            0.3826    -3.0007    -6.0766 H       
  57 H57           11.7082     2.0791     0.1651 H       
  58 H58           11.6001     4.4772    -0.3760 H       
  59 H59            9.4236     5.5708    -0.7167 H       
  60 H60            7.3428     4.2710    -0.5261 H       
  61 H61            8.8242    -0.0624     0.5148 H       
  62 H62           10.5012     0.0233     0.5704 H       
@<TRIPOS>BOND
   1    1    2 1
   2    1    6 2
   3    1   37 1
   4    2    3 2
   5    2   38 1
   6    3    4 1
   7    3   39 1
   8    4    5 1
   9    4    7 2
  10    5    6 1
  11    5   10 am
  12    6   40 1
  13    7    8 1
  14    7   11 1
  15    8    9 2
  16    8   41 1
  17    9   10 1
  18    9   13 1
  19   10   12 2
  20   11   16 1
  21   11   42 1
  22   11   43 1
  23   13   15 2
  24   13   14 am
  25   14   30 1
  26   14   44 1
  27   16   17 1
  28   16   21 1
  29   17   18 1
  30   17   45 1
  31   17   46 1
  32   18   19 1
  33   18   47 1
  34   18   48 1
  35   19   20 1
  36   19   22 1
  37   19   24 1
  38   20   21 1
  39   20   49 1
  40   20   50 1
  41   21   51 1
  42   21   52 1
  43   22   23 ar
  44   22   29 ar
  45   23   26 ar
  46   24   25 3
  47   26   27 ar
  48   26   53 1
  49   27   28 ar
  50   27   54 1
  51   28   29 ar
  52   28   55 1
  53   29   56 1
  54   30   31 ar
  55   30   35 ar
  56   31   32 ar
  57   31   36 1
  58   32   33 ar
  59   32   57 1
  60   33   34 ar
  61   33   58 1
  62   34   35 ar
  63   34   59 1
  64   35   60 1
  65   36   61 1
  66   36   62 1

#	End of record

