#	Name: ASD06170216
#	Creating user name:	WinNT
#	Creation time:	15. 06. 2019 21:05

#	Modifying user name:	WinNT
#	Modification time:	15. 06. 2019 21:05

#	Program:	/corina/corina34_cracker 3.40 0067  02.08.2006

@<TRIPOS>MOLECULE
ASD06170216
  70   74    0    0    0
SMALL
NO_CHARGES


@<TRIPOS>ATOM
   1 C1            -0.1320     1.4987    -0.0439 C.2     
   2 C2            -0.3829     0.1699    -0.4613 C.2     
   3 C3             0.6771    -0.5790    -1.0028 C.2     
   4 C4             1.9449     0.0223    -1.1082 C.2     
   5 C5             2.1251     1.2953    -0.6931 C.2     
   6 N6             1.1025     2.0199    -0.1699 N.am    
   7 C7            -1.7209    -0.4144    -0.3313 C.2     
   8 O8            -1.9646    -1.4951    -0.8353 O.2     
   9 N9            -2.6812     0.2450     0.3465 N.am    
  10 O10           -1.0341     2.1720     0.4244 O.2     
  11 N11            0.4786    -1.8740    -1.4207 N.pl3   
  12 C12            0.0383    -2.1417    -2.7921 C.3     
  13 C13            0.7075    -2.9858    -0.4946 C.3     
  14 C14           -3.9802    -0.2617     0.3858 C.ar    
  15 C15           -4.1990    -1.6126     0.1392 C.ar    
  16 C16           -5.4909    -2.1046     0.1812 C.ar    
  17 C17           -6.5283    -1.2214     0.4707 C.ar    
  18 C18           -6.2349     0.1123     0.7058 C.ar    
  19 N19           -4.9900     0.5472     0.6627 N.ar    
  20 O20           -7.8133    -1.6625     0.5217 O.3     
  21 N21           -8.9328    -3.9288     3.7808 N.ar    
  22 C22           -7.7501    -3.3608     3.7467 C.ar    
  23 C23           -7.3382    -2.5908     2.6663 C.ar    
  24 C24           -8.1882    -2.4091     1.5896 C.ar    
  25 C25           -9.4590    -3.0252     1.6373 C.ar    
  26 C26          -10.3747    -2.8870     0.5836 C.ar    
  27 C27          -11.5934    -3.4967     0.6633 C.ar    
  28 C28          -11.9389    -4.2596     1.7879 C.ar    
  29 C29          -11.0666    -4.4103     2.8271 C.ar    
  30 C30           -9.8049    -3.7951     2.7745 C.ar    
  31 O31          -13.1583    -4.8566     1.8442 O.3     
  32 C32          -13.4531    -5.6208     3.0151 C.3     
  33 O33          -12.4814    -3.3624    -0.3577 O.3     
  34 C34          -12.0704    -2.5722    -1.4752 C.3     
  35 C35            1.3480     3.3969     0.2657 C.3     
  36 C36            1.7632     3.3991     1.7144 C.ar    
  37 C37            3.1005     3.2995     2.0503 C.ar    
  38 C38            3.4813     3.3014     3.3791 C.ar    
  39 C39            2.5250     3.4033     4.3721 C.ar    
  40 C40            1.1878     3.5038     4.0362 C.ar    
  41 C41            0.8073     3.5063     2.7072 C.ar    
  42 H42            2.7738    -0.5338    -1.5205 H       
  43 H43            3.1028     1.7459    -0.7787 H       
  44 H44           -2.4691     1.0719     0.8070 H       
  45 H45           -0.0007    -1.2064    -3.3503 H       
  46 H46            0.7407    -2.8227    -3.2728 H       
  47 H47           -0.9526    -2.5954    -2.7735 H       
  48 H48           -0.2159    -3.2096     0.0397 H       
  49 H49            1.0257    -3.8653    -1.0543 H       
  50 H50            1.4829    -2.7097     0.2200 H       
  51 H51           -3.3707    -2.2691    -0.0826 H       
  52 H52           -5.6907    -3.1492    -0.0066 H       
  53 H53           -7.0341     0.8030     0.9306 H       
  54 H54           -7.0785    -3.4959     4.5816 H       
  55 H55           -6.3590    -2.1353     2.6671 H       
  56 H56          -10.1170    -2.3009    -0.2862 H       
  57 H57          -11.3460    -5.0005     3.6874 H       
  58 H58          -14.4551    -6.0417     2.9315 H       
  59 H59          -12.7271    -6.4277     3.1146 H       
  60 H60          -13.4020    -4.9758     3.8923 H       
  61 H61          -12.8697    -2.5470    -2.2159 H       
  62 H62          -11.8517    -1.5577    -1.1420 H       
  63 H63          -11.1764    -3.0092    -1.9201 H       
  64 H64            2.1417     3.8337    -0.3404 H       
  65 H65            0.4366     3.9832     0.1481 H       
  66 H66            3.8476     3.2199     1.2745 H       
  67 H67            4.5260     3.2229     3.6415 H       
  68 H68            2.8225     3.4041     5.4103 H       
  69 H69            0.4407     3.5831     4.8119 H       
  70 H70           -0.2370     3.5885     2.4447 H       
@<TRIPOS>BOND
   1    1    2 1
   2    1    6 am
   3    1   10 2
   4    2    3 2
   5    2    7 1
   6    3    4 1
   7    3   11 1
   8    4    5 2
   9    4   42 1
  10    5    6 1
  11    5   43 1
  12    6   35 1
  13    7    8 2
  14    7    9 am
  15    9   14 1
  16    9   44 1
  17   11   12 1
  18   11   13 1
  19   12   45 1
  20   12   46 1
  21   12   47 1
  22   13   48 1
  23   13   49 1
  24   13   50 1
  25   14   15 ar
  26   14   19 ar
  27   15   16 ar
  28   15   51 1
  29   16   17 ar
  30   16   52 1
  31   17   18 ar
  32   17   20 1
  33   18   19 ar
  34   18   53 1
  35   20   24 1
  36   21   22 ar
  37   21   30 ar
  38   22   23 ar
  39   22   54 1
  40   23   24 ar
  41   23   55 1
  42   24   25 ar
  43   25   26 ar
  44   25   30 ar
  45   26   27 ar
  46   26   56 1
  47   27   28 ar
  48   27   33 1
  49   28   29 ar
  50   28   31 1
  51   29   30 ar
  52   29   57 1
  53   31   32 1
  54   32   58 1
  55   32   59 1
  56   32   60 1
  57   33   34 1
  58   34   61 1
  59   34   62 1
  60   34   63 1
  61   35   36 1
  62   35   64 1
  63   35   65 1
  64   36   37 ar
  65   36   41 ar
  66   37   38 ar
  67   37   66 1
  68   38   39 ar
  69   38   67 1
  70   39   40 ar
  71   39   68 1
  72   40   41 ar
  73   40   69 1
  74   41   70 1

#	End of record

