#	Name: ASD01884068
#	Creating user name:	WinNT
#	Creation time:	15. 06. 2019 19:47

#	Modifying user name:	WinNT
#	Modification time:	15. 06. 2019 19:47

#	Program:	/corina/corina34_cracker 3.40 0067  02.08.2006

@<TRIPOS>MOLECULE
ASD01884068
  52   56    0    0    0
SMALL
NO_CHARGES


@<TRIPOS>ATOM
   1 C1            -0.3355    -7.5873     3.2970 C.3     
   2 O2            -0.5794    -7.1927     1.9453 O.3     
   3 C3            -1.5576    -6.2723     1.7382 C.ar    
   4 C4            -2.2640    -5.7552     2.8142 C.ar    
   5 C5            -3.2577    -4.8191     2.6010 C.ar    
   6 C6            -3.5484    -4.3982     1.3167 C.ar    
   7 C7            -2.8458    -4.9125     0.2423 C.ar    
   8 C8            -1.8474    -5.8439     0.4507 C.ar    
   9 C9            -1.0776    -6.3990    -0.7200 C.3     
  10 H10           -0.6470    -7.3894    -0.5724 H       
  11 C11           -1.5751    -6.0470    -2.1234 C.3     
  12 C12           -0.2929    -5.4089    -1.5829 C.3     
  13 H13           -0.3334    -4.3559    -1.3039 H       
  14 C14            1.0360    -5.8848    -2.1731 C.3     
  15 O15            1.6753    -4.7978    -2.8452 O.3     
  16 C16            2.9196    -5.0243    -3.3383 C.2     
  17 C17            3.1095    -5.9473    -4.3875 C.2     
  18 C18            4.3441    -6.1735    -4.8790 C.2     
  19 N19            5.4251    -5.5152    -4.3702 N.pl3   
  20 C20            6.7582    -5.5358    -4.6551 C.2     
  21 C21            7.4312    -6.3763    -5.7095 C.3     
  22 C22            7.4694    -5.6039    -7.0297 C.3     
  23 C23            8.8434    -5.2371    -7.5941 C.3     
  24 C24            8.0108    -6.3344    -8.2602 C.3     
  25 N25            7.3458    -4.6931    -3.8469 N.2     
  26 N26            6.4809    -4.1405    -3.0710 N.2     
  27 C27            5.2743    -4.6099    -3.3481 C.2     
  28 C28            3.9944    -4.3552    -2.8248 C.2     
  29 C29            3.8111    -3.3604    -1.7078 C.3     
  30 F30            2.4459    -3.1921    -1.4525 F       
  31 F31            4.4466    -3.8322    -0.5542 F       
  32 F32            4.3707    -2.1333    -2.0796 F       
  33 H33            0.4672    -8.3242     3.3211 H       
  34 H34           -0.0460    -6.7153     3.8834 H       
  35 H35           -1.2418    -8.0233     3.7173 H       
  36 H36           -2.0378    -6.0842     3.8176 H       
  37 H37           -3.8080    -4.4162     3.4384 H       
  38 H38           -4.3257    -3.6667     1.1521 H       
  39 H39           -3.0750    -4.5823    -0.7601 H       
  40 H40           -1.4713    -6.8056    -2.8991 H       
  41 H41           -2.4590    -5.4139    -2.2000 H       
  42 H42            1.6807    -6.2462    -1.3719 H       
  43 H43            0.8505    -6.6917    -2.8820 H       
  44 H44            2.2621    -6.4756    -4.7988 H       
  45 H45            4.4787    -6.8824    -5.6826 H       
  46 H46            8.4486    -6.6081    -5.3946 H       
  47 H47            6.8733    -7.3026    -5.8466 H       
  48 H48            6.6562    -4.8943    -7.1829 H       
  49 H49            8.9344    -4.2860    -8.1187 H       
  50 H50            9.7201    -5.5461    -7.0249 H       
  51 H51            8.3398    -7.3653    -8.1292 H       
  52 H52            7.5541    -6.1052    -9.2230 H       
@<TRIPOS>BOND
   1    1    2 1
   2    1   33 1
   3    1   34 1
   4    1   35 1
   5    2    3 1
   6    3    8 ar
   7    3    4 ar
   8    4    5 ar
   9    4   36 1
  10    5    6 ar
  11    5   37 1
  12    6    7 ar
  13    6   38 1
  14    7    8 ar
  15    7   39 1
  16    8    9 1
  17    9   10 1
  18    9   12 1
  19    9   11 1
  20   11   12 1
  21   11   40 1
  22   11   41 1
  23   12   13 1
  24   12   14 1
  25   14   15 1
  26   14   42 1
  27   14   43 1
  28   15   16 1
  29   16   28 2
  30   16   17 1
  31   17   18 2
  32   17   44 1
  33   18   19 1
  34   18   45 1
  35   19   27 1
  36   19   20 1
  37   20   21 1
  38   20   25 2
  39   21   22 1
  40   21   46 1
  41   21   47 1
  42   22   24 1
  43   22   23 1
  44   22   48 1
  45   23   24 1
  46   23   49 1
  47   23   50 1
  48   24   51 1
  49   24   52 1
  50   25   26 1
  51   26   27 2
  52   27   28 1
  53   28   29 1
  54   29   30 1
  55   29   31 1
  56   29   32 1

#	End of record

