#	Name: ASD03092027
#	Creating user name:	WinNT
#	Creation time:	15. 06. 2019 20:31

#	Modifying user name:	WinNT
#	Modification time:	15. 06. 2019 20:31

#	Program:	/corina/corina34_cracker 3.40 0067  02.08.2006

@<TRIPOS>MOLECULE
ASD03092027
  43   45    0    0    0
SMALL
NO_CHARGES


@<TRIPOS>ATOM
   1 N1             0.2184     1.0354    -0.0930 N.pl3   
   2 C2            -0.0049    -0.3084    -0.0331 C.2     
   3 C3            -1.3567    -0.4965     0.0209 C.2     
   4 C4            -1.9658     0.7643    -0.0070 C.2     
   5 N5            -1.0255     1.6788    -0.0689 N.2     
   6 C6             1.5270     1.6902    -0.1637 C.3     
   7 O7             1.5211     2.6539    -1.2188 O.3     
   8 N8            -3.3440     1.0086     0.0305 N.pl3   
   9 C9            -3.8193     2.3203     0.1249 C.ar    
  10 C10           -5.0828     2.6385    -0.3557 C.ar    
  11 C11           -5.5503     3.9348    -0.2609 C.ar    
  12 C12           -4.7604     4.9166     0.3127 C.ar    
  13 C13           -3.5001     4.6016     0.7927 C.ar    
  14 C14           -3.0305     3.3060     0.7049 C.ar    
  15 C15            1.0272    -1.3678    -0.0281 C.ar    
  16 C16            0.6509    -2.6996     0.1453 C.ar    
  17 C17            1.6282    -3.6793     0.1476 C.ar    
  18 C18            2.9511    -3.2963    -0.0235 C.ar    
  19 C19            3.2540    -1.9572    -0.1903 C.ar    
  20 N20            2.3046    -1.0441    -0.1942 N.ar    
  21 F21           -5.2196     6.1839     0.4039 F       
  22 C22            1.2641    -5.1300     0.3324 C.3     
  23 C23            1.8194     2.3904     1.1649 C.3     
  24 C24           -6.9211     4.2809    -0.7828 C.3     
  25 F25           -7.5219     3.1337    -1.3121 F       
  26 F26           -7.7063     4.7782     0.2629 F       
  27 F27           -6.8077     5.2519    -1.7834 F       
  28 H28           -1.8651    -1.4478     0.0755 H       
  29 H29            2.2969     0.9434    -0.3580 H       
  30 H30            0.8590     3.3504    -1.1116 H       
  31 H31           -3.9691     0.2679    -0.0090 H       
  32 H32           -5.6992     1.8731    -0.8036 H       
  33 H33           -2.8855     5.3691     1.2394 H       
  34 H34           -2.0478     3.0607     1.0796 H       
  35 H35           -0.3884    -2.9625     0.2762 H       
  36 H36            3.7369    -4.0371    -0.0261 H       
  37 H37            4.2827    -1.6565    -0.3233 H       
  38 H38            1.0745    -5.5837    -0.6403 H       
  39 H39            2.0864    -5.6513     0.8225 H       
  40 H40            0.3682    -5.2040     0.9488 H       
  41 H41            1.8240     1.6553     1.9697 H       
  42 H42            2.7931     2.8775     1.1123 H       
  43 H43            1.0496     3.1371     1.3592 H       
@<TRIPOS>BOND
   1    1    2 1
   2    1    6 1
   3    1    5 1
   4    2    3 2
   5    2   15 1
   6    3    4 1
   7    3   28 1
   8    4    5 2
   9    4    8 1
  10    6    7 1
  11    6   23 1
  12    6   29 1
  13    7   30 1
  14    8    9 1
  15    8   31 1
  16    9   10 ar
  17    9   14 ar
  18   10   11 ar
  19   10   32 1
  20   11   12 ar
  21   11   24 1
  22   12   13 ar
  23   12   21 1
  24   13   14 ar
  25   13   33 1
  26   14   34 1
  27   15   16 ar
  28   15   20 ar
  29   16   17 ar
  30   16   35 1
  31   17   18 ar
  32   17   22 1
  33   18   19 ar
  34   18   36 1
  35   19   20 ar
  36   19   37 1
  37   22   38 1
  38   22   39 1
  39   22   40 1
  40   23   41 1
  41   23   42 1
  42   23   43 1
  43   24   25 1
  44   24   26 1
  45   24   27 1

#	End of record

