#	Name: ASD04910145
#	Creating user name:	WinNT
#	Creation time:	15. 06. 2019 20:55

#	Modifying user name:	WinNT
#	Modification time:	15. 06. 2019 20:55

#	Program:	/corina/corina34_cracker 3.40 0067  02.08.2006

@<TRIPOS>MOLECULE
ASD04910145
  32   34    0    0    0
SMALL
NO_CHARGES


@<TRIPOS>ATOM
   1 N1             0.1455     1.1565    -0.7822 N.2     
   2 N2             0.0012    -0.0030    -0.0118 N.pl3   
   3 C3             1.1122    -0.2122     0.7123 C.2     
   4 C4             2.0024     0.8069     0.4281 C.ar    
   5 C5             3.3052     1.1378     0.8576 C.ar    
   6 C6             3.9115     2.2460     0.3624 C.ar    
   7 C7             3.2795     3.0756    -0.5666 C.ar    
   8 C8             2.0278     2.8167    -1.0216 C.ar    
   9 C9             1.3363     1.6805    -0.5510 C.ar    
  10 C10           -1.1346    -0.8237     0.0020 C.ar    
  11 C11           -2.3977    -0.2598     0.1287 C.ar    
  12 C12           -3.5160    -1.0686     0.1418 C.ar    
  13 C13           -3.3787    -2.4450     0.0283 C.ar    
  14 C14           -2.1174    -3.0088    -0.0983 C.ar    
  15 C15           -0.9983    -2.2005    -0.1168 C.ar    
  16 C16           -2.5470     1.2346     0.2525 C.3     
  17 O17           -4.4804    -3.2410     0.0417 O.3     
  18 C18           -4.2653    -4.6485    -0.0793 C.3     
  19 H19            1.2806    -1.0311     1.3960 H       
  20 H20            3.8160     0.5135     1.5757 H       
  21 H21            4.9086     2.4932     0.6955 H       
  22 H22            3.8015     3.9474    -0.9326 H       
  23 H23            1.5638     3.4761    -1.7402 H       
  24 H24           -4.4981    -0.6304     0.2407 H       
  25 H25           -2.0112    -4.0800    -0.1866 H       
  26 H26           -0.0168    -2.6391    -0.2199 H       
  27 H27           -2.5557     1.6824    -0.7413 H       
  28 H28           -3.4818     1.4654     0.7632 H       
  29 H29           -1.7113     1.6371     0.8250 H       
  30 H30           -3.7630    -4.8594    -1.0234 H       
  31 H31           -3.6446    -4.9936     0.7475 H       
  32 H32           -5.2243    -5.1661    -0.0544 H       
@<TRIPOS>BOND
   1    1    2 1
   2    1    9 2
   3    2    3 1
   4    2   10 1
   5    3    4 2
   6    3   19 1
   7    4    5 ar
   8    4    9 ar
   9    5    6 ar
  10    5   20 1
  11    6    7 ar
  12    6   21 1
  13    7    8 ar
  14    7   22 1
  15    8    9 ar
  16    8   23 1
  17   10   11 ar
  18   10   15 ar
  19   11   12 ar
  20   11   16 1
  21   12   13 ar
  22   12   24 1
  23   13   14 ar
  24   13   17 1
  25   14   15 ar
  26   14   25 1
  27   15   26 1
  28   16   27 1
  29   16   28 1
  30   16   29 1
  31   17   18 1
  32   18   30 1
  33   18   31 1
  34   18   32 1

#	End of record

