#	Name: ASD03710002
#	Creating user name:	WinNT
#	Creation time:	15. 06. 2019 20:43

#	Modifying user name:	WinNT
#	Modification time:	15. 06. 2019 20:43

#	Program:	/corina/corina34_cracker 3.40 0067  02.08.2006

@<TRIPOS>MOLECULE
ASD03710002
  54   54    0    0    0
SMALL
NO_CHARGES


@<TRIPOS>ATOM
   1 C1            -0.0187     1.5258     0.0104 C.3     
   2 C2             0.0021    -0.0041     0.0020 C.3     
   3 C3            -1.4333    -0.5336     0.0129 C.3     
   4 C4            -2.1733    -0.0268    -1.2266 C.3     
   5 C5            -2.1940     1.5030    -1.2182 C.3     
   6 C6            -0.7587     2.0326    -1.2291 C.3     
   7 O7            -0.0898     1.5718    -2.4048 O.3     
   8 O8             1.3220     2.0204     0.0003 O.3     
   9 O9            -2.8852     1.9764    -2.3759 O.3     
  10 O10           -1.5044    -0.4877    -2.4024 O.3     
  11 O11           -1.4139    -1.9625     0.0050 O.3     
  12 O12            0.6709    -0.4649    -1.1737 O.3     
  13 P13            0.5247     2.5670    -3.5111 P.3     
  14 P14           -4.2105     2.8869    -2.2948 P.3     
  15 P15           -2.2142    -1.4201    -3.5064 P.3     
  16 P16           -2.0659    -2.8547     1.1759 P.3     
  17 P17            1.9975    -1.3761    -1.1276 P.3     
  18 P18            1.9221     2.9510     1.1690 P.3     
  19 O19            3.4074     3.4255     0.7677 O.3     
  20 O20            1.0565     4.1380     1.3479 O.2     
  21 O21            1.9787     2.1158     2.5443 O.3     
  22 O22            2.3996    -1.8146    -2.6237 O.3     
  23 O23            3.2038    -0.5349    -0.4724 O.3     
  24 O24            1.7384    -2.5838    -0.3124 O.2     
  25 O25           -1.9763    -4.4120     0.7770 O.3     
  26 O26           -1.2645    -2.6057     2.5499 O.3     
  27 O27           -3.4843    -2.4724     1.3558 O.2     
  28 O28           -1.1336    -1.8515    -4.6193 O.3     
  29 O29           -2.7594    -2.6308    -2.8528 O.2     
  30 O30           -3.4113    -0.6041    -4.2086 O.3     
  31 O31           -3.8464     4.3065    -1.6284 O.3     
  32 O32           -4.7909     3.1233    -3.7778 O.3     
  33 O33           -5.2301     2.2015    -1.4695 O.2     
  34 O34            1.3138     1.7115    -4.6235 O.3     
  35 O35           -0.6674     3.3905    -4.2134 O.3     
  36 O36            1.4598     3.5115    -2.8601 O.2     
  37 H37           -0.5289     1.8773     0.9072 H       
  38 H38            0.5293    -0.3651     0.8851 H       
  39 H39           -1.9435    -0.1821     0.9097 H       
  40 H40           -3.1959    -0.4041    -1.2189 H       
  41 H41           -2.7042     1.8545    -0.3214 H       
  42 H42           -0.7734     3.1225    -1.2231 H       
  43 H43            3.8313     3.9910     1.4277 H       
  44 H44            2.5296     1.3223     2.5001 H       
  45 H45            3.1918    -2.3669    -2.6721 H       
  46 H46            3.4286     0.2720    -0.9556 H       
  47 H47           -2.3512    -5.0096     1.4384 H       
  48 H48           -0.3262    -2.8352     2.5051 H       
  49 H49           -1.4923    -2.4159    -5.3178 H       
  50 H50           -3.1263     0.2034    -4.6578 H       
  51 H51           -3.1826     4.8118    -2.1174 H       
  52 H52           -5.5914     3.6651    -3.8052 H       
  53 H53            1.7111     2.2477    -5.3233 H       
  54 H54           -1.3194     2.8340    -4.6609 H       
@<TRIPOS>BOND
   1    1    2 1
   2    1    8 1
   3    1    6 1
   4    1   37 1
   5    2    3 1
   6    2   12 1
   7    2   38 1
   8    3    4 1
   9    3   11 1
  10    3   39 1
  11    4    5 1
  12    4   10 1
  13    4   40 1
  14    5    6 1
  15    5    9 1
  16    5   41 1
  17    6    7 1
  18    6   42 1
  19    7   13 1
  20    8   18 1
  21    9   14 1
  22   10   15 1
  23   11   16 1
  24   12   17 1
  25   13   34 1
  26   13   35 1
  27   13   36 2
  28   14   31 1
  29   14   32 1
  30   14   33 2
  31   15   28 1
  32   15   29 2
  33   15   30 1
  34   16   25 1
  35   16   26 1
  36   16   27 2
  37   17   22 1
  38   17   23 1
  39   17   24 2
  40   18   19 1
  41   18   20 2
  42   18   21 1
  43   19   43 1
  44   21   44 1
  45   22   45 1
  46   23   46 1
  47   25   47 1
  48   26   48 1
  49   28   49 1
  50   30   50 1
  51   31   51 1
  52   32   52 1
  53   34   53 1
  54   35   54 1

#	End of record

