#	Name: ASD01028373
#	Creating user name:	WinNT
#	Creation time:	15. 06. 2019 18:57

#	Modifying user name:	WinNT
#	Modification time:	15. 06. 2019 18:57

#	Program:	/corina/corina34_cracker 3.40 0067  02.08.2006

@<TRIPOS>MOLECULE
ASD01028373
  49   53    0    0    0
SMALL
NO_CHARGES


@<TRIPOS>ATOM
   1 C1            -0.0162     1.3832     0.0096 C.ar    
   2 C2             0.0023    -0.0044     0.0059 C.ar    
   3 C3             1.1900     2.0740     0.0058 C.ar    
   4 C4             2.3746     1.3390    -0.0016 C.ar    
   5 C5             2.3125    -0.0384    -0.0049 C.ar    
   6 N6             1.1506    -0.6648    -0.0007 N.ar    
   7 O7             1.2140     3.4312     0.0088 O.3     
   8 C8             2.4984     4.0575     0.0045 C.3     
   9 C9             2.3273     5.5547     0.0087 C.2     
  10 N10            2.2417     6.3443     1.1015 N.pl3   
  11 C11            2.0936     7.6278     0.6314 C.2     
  12 N12            2.0967     7.5542    -0.6896 N.2     
  13 N13            2.2406     6.3257    -1.0465 N.2     
  14 N14            2.2744     6.1017     2.4762 N.2     
  15 C15            2.1643     7.0944     3.3311 C.2     
  16 C16            2.0107     8.4225     2.8798 C.2     
  17 C17            1.9766     8.6901     1.5477 C.2     
  18 C18            2.2016     6.8149     4.7877 C.ar    
  19 N19           -1.1998    -0.7105     0.0097 N.am    
  20 C20           -1.1926    -2.0538    -0.0993 C.2     
  21 O21           -0.1469    -2.6422    -0.2955 O.2     
  22 N22           -2.3446    -2.7449     0.0091 N.am    
  23 C23            2.3524     5.5073     5.2452 C.ar    
  24 C24            2.2705     6.2932     7.5057 C.ar    
  25 C25            2.1268     7.5938     7.0572 C.ar    
  26 C26            2.0916     7.8597     5.7033 C.ar    
  27 C27            2.3863     5.2530     6.6013 C.ar    
  28 C28           -2.3367    -4.2051    -0.1094 C.3     
  29 C29           -3.4701    -4.9752     0.5712 C.3     
  30 C30           -3.4372    -4.8513    -0.9534 C.3     
  31 H31           -0.9542     1.9186     0.0110 H       
  32 H32            3.3299     1.8427    -0.0051 H       
  33 H33            3.2271    -0.6128    -0.0110 H       
  34 H34            3.0542     3.7528     0.8913 H       
  35 H35            3.0462     3.7568    -0.8886 H       
  36 H36            1.9212     9.2277     3.5940 H       
  37 H37            1.8596     9.7047     1.1966 H       
  38 H38           -2.0414    -0.2350     0.0908 H       
  39 H39           -3.1789    -2.2755     0.1656 H       
  40 H40            2.4422     4.6943     4.5400 H       
  41 H41            2.2976     6.0898     8.5660 H       
  42 H42            2.0364     8.4022     7.7677 H       
  43 H43            1.9793     8.8755     5.3542 H       
  44 H44            2.5032     4.2400     6.9570 H       
  45 H45           -1.3510    -4.6702    -0.1255 H       
  46 H46           -3.2302    -5.9471     1.0025 H       
  47 H47           -4.2216    -4.3955     1.1072 H       
  48 H48           -4.1670    -4.1900    -1.4205 H       
  49 H49           -3.1756    -5.7417    -1.5251 H       
@<TRIPOS>BOND
   1    1    2 ar
   2    1    3 ar
   3    1   31 1
   4    2   19 1
   5    2    6 ar
   6    3    4 ar
   7    3    7 1
   8    4    5 ar
   9    4   32 1
  10    5    6 ar
  11    5   33 1
  12    7    8 1
  13    8    9 1
  14    8   34 1
  15    8   35 1
  16    9   10 1
  17    9   13 2
  18   10   11 1
  19   10   14 1
  20   11   12 2
  21   11   17 1
  22   12   13 1
  23   14   15 2
  24   15   16 1
  25   15   18 1
  26   16   17 2
  27   16   36 1
  28   17   37 1
  29   18   23 ar
  30   18   26 ar
  31   19   20 am
  32   19   38 1
  33   20   21 2
  34   20   22 am
  35   22   28 1
  36   22   39 1
  37   23   27 ar
  38   23   40 1
  39   24   25 ar
  40   24   27 ar
  41   24   41 1
  42   25   26 ar
  43   25   42 1
  44   26   43 1
  45   27   44 1
  46   28   29 1
  47   28   30 1
  48   28   45 1
  49   29   30 1
  50   29   46 1
  51   29   47 1
  52   30   48 1
  53   30   49 1

#	End of record

