#	Name: ASD08178163
#	Creating user name:	WinNT
#	Creation time:	15. 06. 2019 21:18

#	Modifying user name:	WinNT
#	Modification time:	15. 06. 2019 21:18

#	Program:	/corina/corina34_cracker 3.40 0067  02.08.2006

@<TRIPOS>MOLECULE
ASD08178163
  78   83    0    0    0
SMALL
NO_CHARGES


@<TRIPOS>ATOM
   1 C1            -0.0155     1.2947     0.0092 C.2     
   2 N2             0.0021    -0.0041     0.0020 N.2     
   3 N3            -1.1080    -0.6054     0.0101 N.2     
   4 C4            -2.1692     0.1372     0.0249 C.2     
   5 S5            -1.6454     1.8216     0.0350 S.3     
   6 C6            -3.5951    -0.3504     0.0368 C.3     
   7 C7            -4.0631    -0.5225     1.4832 C.3     
   8 C8            -5.5108    -1.0175     1.4953 C.3     
   9 C9            -5.9789    -1.1897     2.9417 C.3     
  10 C10           -7.4048    -1.6772     2.9536 C.2     
  11 N11           -7.7893    -2.9140     2.9518 N.2     
  12 N12           -9.0351    -3.1183     2.9632 N.2     
  13 C13           -9.8162    -2.0805     2.9757 C.2     
  14 S14           -8.8499    -0.6660     2.9802 S.3     
  15 N15          -11.2065    -2.1126     2.9893 N.am    
  16 C16          -11.8534    -3.2949     2.9908 C.2     
  17 C17          -13.3599    -3.3296     3.0055 C.3     
  18 O18          -11.2230    -4.3310     2.9803 O.2     
  19 C19          -13.8294    -4.7616     3.0043 C.ar    
  20 C20          -14.0329    -5.4233     4.2008 C.ar    
  21 C21          -14.0620    -5.4117     1.8067 C.ar    
  22 C22          -14.4927    -6.7252     1.8055 C.ar    
  23 C23          -14.6904    -7.3888     3.0020 C.ar    
  24 C24          -14.4636    -6.7369     4.1996 C.ar    
  25 N25            1.1034     2.1206     0.0029 N.am    
  26 C26            2.3386     1.5818    -0.0123 C.2     
  27 C27            3.5511     2.4767    -0.0190 C.3     
  28 O28            2.4745     0.3766    -0.0205 O.2     
  29 C29            4.7989     1.6319    -0.0361 C.ar    
  30 C30            5.3595     1.2513    -1.2410 C.ar    
  31 C31            6.5041     0.4764    -1.2567 C.ar    
  32 C32            7.0884     0.0825    -0.0674 C.ar    
  33 C33            6.5283     0.4638     1.1375 C.ar    
  34 C34            5.3862     1.2424     1.1531 C.ar    
  35 C35            7.1147     0.0607    -2.5702 C.3     
  36 N36            8.0869     1.0697    -2.9979 N.pl3   
  37 N37            7.8370     2.4386    -3.1593 N.2     
  38 C38            8.9453     3.0130    -3.5510 C.2     
  39 C39            9.9351     2.0299    -3.6515 C.2     
  40 C40            9.3827     0.8455    -3.3005 C.2     
  41 C41          -14.7473    -7.4336     0.5000 C.3     
  42 N42          -13.5174    -8.0934     0.0545 N.pl3   
  43 N43          -12.2729    -7.4779    -0.1316 N.2     
  44 C44          -11.4228    -8.3878    -0.5332 C.2     
  45 C45          -12.0977    -9.6102    -0.6155 C.2     
  46 C46          -13.3820    -9.4026    -0.2433 C.2     
  47 H47           -4.2319     0.3767    -0.4671 H       
  48 H48           -3.6561    -1.3075    -0.4812 H       
  49 H49           -3.4263    -1.2496     1.9871 H       
  50 H50           -4.0021     0.4346     2.0012 H       
  51 H51           -6.1476    -0.2904     0.9914 H       
  52 H52           -5.5719    -1.9746     0.9773 H       
  53 H53           -5.3421    -1.9168     3.4456 H       
  54 H54           -5.9178    -0.2326     3.4597 H       
  55 H55          -11.7107    -1.2839     2.9977 H       
  56 H56          -13.7261    -2.8280     3.9013 H       
  57 H57          -13.7437    -2.8206     2.1214 H       
  58 H58          -13.8552    -4.9142     5.1365 H       
  59 H59          -13.9076    -4.8932     0.8720 H       
  60 H60          -15.0272    -8.4150     3.0011 H       
  61 H61          -14.6180    -7.2554     5.1344 H       
  62 H62            0.9948     3.0845     0.0095 H       
  63 H63            3.5296     3.1110    -0.9053 H       
  64 H64            3.5470     3.1008     0.8746 H       
  65 H65            4.9030     1.5591    -2.1701 H       
  66 H66            7.9822    -0.5236    -0.0796 H       
  67 H67            6.9846     0.1557     2.0666 H       
  68 H68            4.9486     1.5403     2.0945 H       
  69 H69            7.6166    -0.8994    -2.4499 H       
  70 H70            6.3311    -0.0307    -3.3224 H       
  71 H71            9.0737     4.0646    -3.7608 H       
  72 H72           10.9603     2.1888    -3.9517 H       
  73 H73            9.8867    -0.1093    -3.2744 H       
  74 H74          -15.5302    -8.1793     0.6378 H       
  75 H75          -15.0634    -6.7093    -0.2508 H       
  76 H76          -10.3802    -8.2234    -0.7619 H       
  77 H77          -11.6684   -10.5538    -0.9181 H       
  78 H78          -14.1610   -10.1494    -0.1998 H       
@<TRIPOS>BOND
   1    1    2 2
   2    1   25 1
   3    1    5 1
   4    2    3 1
   5    3    4 2
   6    4    5 1
   7    4    6 1
   8    6    7 1
   9    6   47 1
  10    6   48 1
  11    7    8 1
  12    7   49 1
  13    7   50 1
  14    8    9 1
  15    8   51 1
  16    8   52 1
  17    9   10 1
  18    9   53 1
  19    9   54 1
  20   10   11 2
  21   10   14 1
  22   11   12 1
  23   12   13 2
  24   13   14 1
  25   13   15 1
  26   15   16 am
  27   15   55 1
  28   16   17 1
  29   16   18 2
  30   17   19 1
  31   17   56 1
  32   17   57 1
  33   19   20 ar
  34   19   21 ar
  35   20   24 ar
  36   20   58 1
  37   21   22 ar
  38   21   59 1
  39   22   23 ar
  40   22   41 1
  41   23   24 ar
  42   23   60 1
  43   24   61 1
  44   25   26 am
  45   25   62 1
  46   26   27 1
  47   26   28 2
  48   27   29 1
  49   27   63 1
  50   27   64 1
  51   29   30 ar
  52   29   34 ar
  53   30   31 ar
  54   30   65 1
  55   31   32 ar
  56   31   35 1
  57   32   33 ar
  58   32   66 1
  59   33   34 ar
  60   33   67 1
  61   34   68 1
  62   35   36 1
  63   35   69 1
  64   35   70 1
  65   36   37 1
  66   36   40 1
  67   37   38 2
  68   38   39 1
  69   38   71 1
  70   39   40 2
  71   39   72 1
  72   40   73 1
  73   41   42 1
  74   41   74 1
  75   41   75 1
  76   42   43 1
  77   42   46 1
  78   43   44 2
  79   44   45 1
  80   44   76 1
  81   45   46 2
  82   45   77 1
  83   46   78 1

#	End of record

