#	Name: ASD00100117
#	Creating user name:	WinNT
#	Creation time:	15. 06. 2019 18:30

#	Modifying user name:	WinNT
#	Modification time:	15. 06. 2019 18:30

#	Program:	/corina/corina34_cracker 3.40 0067  02.08.2006

@<TRIPOS>MOLECULE
ASD00100117
  42   44    0    0    0
SMALL
NO_CHARGES


@<TRIPOS>ATOM
   1 N1            -0.9525    -1.3893    -2.3686 N.pl3   
   2 C2            -0.4904    -1.4059    -1.0637 C.2     
   3 N3             0.6382    -1.9365    -0.6601 N.2     
   4 C4             0.7564    -1.7635     0.6803 C.2     
   5 C5            -0.3440    -1.1004     1.1137 C.2     
   6 N6            -1.1301    -0.8687     0.0106 N.pl3   
   7 C7             1.8889    -2.2198     1.5229 C.ar    
   8 C8             2.9627    -2.8945     0.9447 C.ar    
   9 C9             4.0139    -3.3171     1.7323 C.ar    
  10 C10            4.0029    -3.0721     3.0958 C.ar    
  11 C11            2.9376    -2.4018     3.6748 C.ar    
  12 C12            1.8850    -1.9701     2.8940 C.ar    
  13 F13            5.0338    -3.4885     3.8633 F       
  14 C14           -2.4204    -0.1750    -0.0054 C.3     
  15 C15           -2.8261     0.1636     1.4059 C.ar    
  16 C16           -2.4764     1.3879     1.9541 C.ar    
  17 C17           -2.8512     1.6973     3.2540 C.ar    
  18 C18           -3.5724     0.7863     4.0017 C.ar    
  19 C19           -3.9222    -0.4347     3.4576 C.ar    
  20 C20           -3.5547    -0.7465     2.1562 C.ar    
  21 O21           -3.9038    -1.9453     1.6197 O.3     
  22 C22           -4.6542    -2.8338     2.4500 C.3     
  23 O23           -1.7667     2.2842     1.2194 O.3     
  24 C24           -1.4412     3.5255     1.8480 C.3     
  25 H25           -0.3931    -1.7271    -3.0855 H       
  26 H26           -1.8372    -1.0437    -2.5655 H       
  27 H27           -0.5596    -0.8070     2.1305 H       
  28 H28            2.9719    -3.0865    -0.1180 H       
  29 H29            4.8464    -3.8400     1.2852 H       
  30 H30            2.9331    -2.2130     4.7381 H       
  31 H31            1.0572    -1.4434     3.3454 H       
  32 H32           -2.3327     0.7419    -0.5881 H       
  33 H33           -3.1745    -0.8208    -0.4553 H       
  34 H34           -2.5787     2.6509     3.6816 H       
  35 H35           -3.8628     1.0288     5.0132 H       
  36 H36           -4.4859    -1.1452     4.0440 H       
  37 H37           -4.8663    -3.7516     1.9015 H       
  38 H38           -4.0772    -3.0700     3.3440 H       
  39 H39           -5.5915    -2.3577     2.7377 H       
  40 H40           -2.3589     4.0407     2.1318 H       
  41 H41           -0.8411     3.3357     2.7379 H       
  42 H42           -0.8754     4.1470     1.1539 H       
@<TRIPOS>BOND
   1    1    2 1
   2    1   25 1
   3    1   26 1
   4    2    3 2
   5    2    6 1
   6    3    4 1
   7    4    5 2
   8    4    7 1
   9    5    6 1
  10    5   27 1
  11    6   14 1
  12    7    8 ar
  13    7   12 ar
  14    8    9 ar
  15    8   28 1
  16    9   10 ar
  17    9   29 1
  18   10   11 ar
  19   10   13 1
  20   11   12 ar
  21   11   30 1
  22   12   31 1
  23   14   15 1
  24   14   32 1
  25   14   33 1
  26   15   16 ar
  27   15   20 ar
  28   16   17 ar
  29   16   23 1
  30   17   18 ar
  31   17   34 1
  32   18   19 ar
  33   18   35 1
  34   19   20 ar
  35   19   36 1
  36   20   21 1
  37   21   22 1
  38   22   37 1
  39   22   38 1
  40   22   39 1
  41   23   24 1
  42   24   40 1
  43   24   41 1
  44   24   42 1

#	End of record

