#	Name: ASD03331226
#	Creating user name:	WinNT
#	Creation time:	15. 06. 2019 20:38

#	Modifying user name:	WinNT
#	Modification time:	15. 06. 2019 20:38

#	Program:	/corina/corina34_cracker 3.40 0067  02.08.2006

@<TRIPOS>MOLECULE
ASD03331226
  52   55    0    0    0
SMALL
NO_CHARGES


@<TRIPOS>ATOM
   1 N1            -0.0472     1.4518     0.2744 N.am    
   2 C2            -0.0347     0.0067     0.5483 C.3     
   3 C3             0.7377    -0.6948    -0.5740 C.3     
   4 N4             2.0635    -0.0772    -0.7118 N.3     
   5 C5             1.9558     1.3326    -1.1103 C.3     
   6 C6             1.2333     2.1172    -0.0101 C.3     
   7 C7            -1.2020     2.1466     0.2784 C.2     
   8 O8            -2.2608     1.5653     0.4174 O.2     
   9 N9            -1.1831     3.4859     0.1284 N.am    
  10 C10           -2.3870     4.1974     0.0328 C.ar    
  11 C11           -2.4039     5.5734     0.2485 C.ar    
  12 C12           -3.5966     6.2716     0.1522 C.ar    
  13 C13           -4.7665     5.6028    -0.1568 C.ar    
  14 C14           -4.7504     4.2369    -0.3710 C.ar    
  15 C15           -3.5637     3.5341    -0.2824 C.ar    
  16 C16            2.8988    -0.8293    -1.6576 C.3     
  17 C17            4.1474    -0.0420    -1.9612 C.ar    
  18 C18            5.2871    -0.2136    -1.1791 C.ar    
  19 N19            6.3913     0.4534    -1.4133 N.ar    
  20 C20            6.4729     1.3316    -2.4174 C.ar    
  21 C21            5.3497     1.5544    -3.2523 C.ar    
  22 C22            4.1643     0.8366    -3.0072 C.ar    
  23 C23            5.4404     2.4789    -4.3055 C.ar    
  24 C24            7.6595     2.0444    -2.6637 C.ar    
  25 C25            7.7124     2.9324    -3.6933 C.ar    
  26 C26            6.6063     3.1505    -4.5126 C.ar    
  27 O27           -1.2526     6.2297     0.5532 O.3     
  28 C28           -1.3455     7.6404     0.7611 C.3     
  29 H29            0.4562    -0.1807     1.5033 H       
  30 H30           -1.0574    -0.3689     0.5792 H       
  31 H31            0.8521    -1.7513    -0.3315 H       
  32 H32            0.1901    -0.5934    -1.5109 H       
  33 H33            2.9535     1.7464    -1.2569 H       
  34 H34            1.3911     1.4057    -2.0398 H       
  35 H35            1.0488     3.1368    -0.3483 H       
  36 H36            1.8461     2.1326     0.8913 H       
  37 H37           -0.3364     3.9574     0.0865 H       
  38 H38           -3.6126     7.3386     0.3190 H       
  39 H39           -5.6955     6.1487    -0.2307 H       
  40 H40           -5.6667     3.7186    -0.6121 H       
  41 H41           -3.5533     2.4679    -0.4543 H       
  42 H42            3.1720    -1.7885    -1.2179 H       
  43 H43            2.3422    -0.9976    -2.5796 H       
  44 H44            5.2604    -0.9143    -0.3578 H       
  45 H45            3.2899     0.9818    -3.6242 H       
  46 H46            4.5903     2.6557    -4.9478 H       
  47 H47            8.5256     1.8881    -2.0377 H       
  48 H48            8.6261     3.4777    -3.8781 H       
  49 H49            6.6755     3.8605    -5.3234 H       
  50 H50           -1.7237     8.1168    -0.1434 H       
  51 H51           -2.0253     7.8416     1.5891 H       
  52 H52           -0.3586     8.0388     0.9963 H       
@<TRIPOS>BOND
   1    1    2 1
   2    1    6 1
   3    1    7 am
   4    2    3 1
   5    2   29 1
   6    2   30 1
   7    3    4 1
   8    3   31 1
   9    3   32 1
  10    4    5 1
  11    4   16 1
  12    5    6 1
  13    5   33 1
  14    5   34 1
  15    6   35 1
  16    6   36 1
  17    7    8 2
  18    7    9 am
  19    9   10 1
  20    9   37 1
  21   10   11 ar
  22   10   15 ar
  23   11   12 ar
  24   11   27 1
  25   12   13 ar
  26   12   38 1
  27   13   14 ar
  28   13   39 1
  29   14   15 ar
  30   14   40 1
  31   15   41 1
  32   16   17 1
  33   16   42 1
  34   16   43 1
  35   17   18 ar
  36   17   22 ar
  37   18   19 ar
  38   18   44 1
  39   19   20 ar
  40   20   21 ar
  41   20   24 ar
  42   21   22 ar
  43   21   23 ar
  44   22   45 1
  45   23   26 ar
  46   23   46 1
  47   24   25 ar
  48   24   47 1
  49   25   26 ar
  50   25   48 1
  51   26   49 1
  52   27   28 1
  53   28   50 1
  54   28   51 1
  55   28   52 1

#	End of record

