#	Name: ASD01900872
#	Creating user name:	WinNT
#	Creation time:	15. 06. 2019 19:52

#	Modifying user name:	WinNT
#	Modification time:	15. 06. 2019 19:52

#	Program:	/corina/corina34_cracker 3.40 0067  02.08.2006

@<TRIPOS>MOLECULE
ASD01900872
  62   66    0    0    0
SMALL
NO_CHARGES


@<TRIPOS>ATOM
   1 C1             2.2984     0.3931     0.4135 C.ar    
   2 C2             2.7347    -0.9067     0.2662 C.ar    
   3 C3             4.0618    -1.1728    -0.0382 C.ar    
   4 C4             4.9685    -0.1400    -0.1910 C.ar    
   5 C5             4.5472     1.1698    -0.0401 C.ar    
   6 C6             3.1994     1.4435     0.2540 C.ar    
   7 N7             5.4256     2.2404    -0.1650 N.pl3   
   8 C8             4.9036     3.5349    -0.6174 C.3     
   9 N9             3.6361     3.8323     0.0508 N.am    
  10 C10            2.7813     2.8488     0.3952 C.2     
  11 C11            3.3057     5.1625     0.3379 C.ar    
  12 C12            3.8922     5.8061     1.4197 C.ar    
  13 C13            3.5662     7.1179     1.7019 C.ar    
  14 C14            2.6530     7.7928     0.9050 C.ar    
  15 C15            2.0663     7.1505    -0.1755 C.ar    
  16 C16            2.3956     5.8405    -0.4624 C.ar    
  17 O17            2.3325     9.0846     1.1835 O.3     
  18 O18            1.6738     3.1194     0.8187 O.2     
  19 C19            1.4096     9.7284     0.3027 C.3     
  20 C20            5.9210     4.6321    -0.2905 C.3     
  21 C21            4.6841     3.4905    -2.1322 C.3     
  22 C22            4.2049     4.8623    -2.6127 C.3     
  23 N23            5.2088     5.8792    -2.2747 N.3     
  24 C24            5.4051     5.9712    -0.8224 C.3     
  25 C25            4.8464     7.1854    -2.8408 C.3     
  26 C26            5.8440     8.2217    -2.3917 C.ar    
  27 C27            5.5086     9.1182    -1.3959 C.ar    
  28 C28            6.4236    10.0695    -0.9834 C.ar    
  29 C29            7.6759    10.1259    -1.5662 C.ar    
  30 C30            8.0162     9.2317    -2.5630 C.ar    
  31 C31            7.1023     8.2726    -2.9743 C.ar    
  32 Br32           4.6357    -2.9627    -0.2452 Br      
  33 F33            0.1936     9.0368     0.3147 F       
  34 F34            1.2014    11.0452     0.7268 F       
  35 F35            1.9304     9.7335    -0.9957 F       
  36 O36            7.4368     7.3881    -3.9503 O.3     
  37 C37            8.7491     7.4993    -4.5048 C.3     
  38 F38            9.6992     7.3203    -3.4936 F       
  39 F39            8.9245     6.5198    -5.4881 F       
  40 F40            8.9085     8.7667    -5.0753 F       
  41 H41            1.2635     0.5956     0.6467 H       
  42 H42            2.0386    -1.7232     0.3890 H       
  43 H43            6.0004    -0.3543    -0.4267 H       
  44 H44            6.3669     2.1333     0.0431 H       
  45 H45            4.6028     5.2806     2.0403 H       
  46 H46            4.0220     7.6184     2.5434 H       
  47 H47            1.3552     7.6765    -0.7952 H       
  48 H48            1.9424     5.3420    -1.3065 H       
  49 H49            6.0534     4.6959     0.7895 H       
  50 H50            6.8751     4.3962    -0.7619 H       
  51 H51            5.6211     3.2379    -2.6286 H       
  52 H52            3.9315     2.7385    -2.3691 H       
  53 H53            4.0612     4.8389    -3.6929 H       
  54 H54            3.2610     5.1081    -2.1262 H       
  55 H55            4.4565     6.2117    -0.3422 H       
  56 H56            6.1317     6.7535    -0.6029 H       
  57 H57            4.8515     7.1237    -3.9291 H       
  58 H58            3.8509     7.4666    -2.4975 H       
  59 H59            4.5308     9.0764    -0.9393 H       
  60 H60            6.1593    10.7698    -0.2049 H       
  61 H61            8.3887    10.8698    -1.2423 H       
  62 H62            8.9945     9.2764    -3.0183 H       
@<TRIPOS>BOND
   1    1    2 ar
   2    1    6 ar
   3    1   41 1
   4    2    3 ar
   5    2   42 1
   6    3    4 ar
   7    3   32 1
   8    4    5 ar
   9    4   43 1
  10    5    7 1
  11    5    6 ar
  12    6   10 1
  13    7    8 1
  14    7   44 1
  15    8    9 1
  16    8   21 1
  17    8   20 1
  18    9   10 am
  19    9   11 1
  20   10   18 2
  21   11   12 ar
  22   11   16 ar
  23   12   13 ar
  24   12   45 1
  25   13   14 ar
  26   13   46 1
  27   14   15 ar
  28   14   17 1
  29   15   16 ar
  30   15   47 1
  31   16   48 1
  32   17   19 1
  33   19   33 1
  34   19   34 1
  35   19   35 1
  36   20   24 1
  37   20   49 1
  38   20   50 1
  39   21   22 1
  40   21   51 1
  41   21   52 1
  42   22   23 1
  43   22   53 1
  44   22   54 1
  45   23   24 1
  46   23   25 1
  47   24   55 1
  48   24   56 1
  49   25   26 1
  50   25   57 1
  51   25   58 1
  52   26   27 ar
  53   26   31 ar
  54   27   28 ar
  55   27   59 1
  56   28   29 ar
  57   28   60 1
  58   29   30 ar
  59   29   61 1
  60   30   31 ar
  61   30   62 1
  62   31   36 1
  63   36   37 1
  64   37   38 1
  65   37   39 1
  66   37   40 1

#	End of record

