#	Name: ASD04591107
#	Creating user name:	WinNT
#	Creation time:	15. 06. 2019 20:52

#	Modifying user name:	WinNT
#	Modification time:	15. 06. 2019 20:52

#	Program:	/corina/corina34_cracker 3.40 0067  02.08.2006

@<TRIPOS>MOLECULE
ASD04591107
  60   65    0    0    0
SMALL
NO_CHARGES


@<TRIPOS>ATOM
   1 N1            -0.0171     1.3232    -0.0119 N.ar    
   2 C2             0.0017    -0.0035    -0.0051 C.ar    
   3 N3             1.1298    -0.6949    -0.0118 N.ar    
   4 C4             2.3050    -0.0728    -0.0262 C.ar    
   5 C5             2.3189     1.3366    -0.0341 C.ar    
   6 C6             1.1072     2.0202    -0.0262 C.ar    
   7 N7             3.6031    -0.5195    -0.0358 N.pl3   
   8 C8             4.4823     0.5495    -0.0499 C.ar    
   9 C9             3.7312     1.7385    -0.0495 C.ar    
  10 C10            5.8680     0.6418    -0.0633 C.ar    
  11 N11            6.4613     1.8181    -0.0753 N.ar    
  12 C12            5.7850     2.9533    -0.0753 C.ar    
  13 C13            4.4064     2.9585    -0.0621 C.ar    
  14 N14           -1.2019    -0.6887     0.0098 N.pl3   
  15 C15           -2.4019     0.0120     0.1303 C.ar    
  16 N16           -2.3783     1.3196     0.3309 N.ar    
  17 C17           -3.4885     2.0229     0.4509 C.ar    
  18 C18           -4.7291     1.4087     0.3703 C.ar    
  19 C19           -4.7935     0.0321     0.1596 C.ar    
  20 C20           -3.6094    -0.6709     0.0326 C.ar    
  21 N21           -5.9023     2.1615     0.4995 N.3     
  22 C22            4.0018    -1.9292    -0.0312 C.3     
  23 C23            3.4610    -2.6259     1.2297 C.3     
  24 C24            2.5279    -3.7542     0.7439 C.3     
  25 C25            3.0203    -4.0625    -0.6919 C.3     
  26 C26            3.3785    -2.6585    -1.2393 C.3     
  27 C27           -5.6097     3.5159     0.7047 C.3     
  28 C28           -6.8805     4.3242     1.0497 C.3     
  29 C29           -7.6792     4.5416    -0.2102 C.3     
  30 N30           -8.7043     3.4962    -0.4311 N.3     
  31 C31           -8.2346     2.1280    -0.1309 C.3     
  32 C32           -6.8275     1.8960    -0.6207 C.3     
  33 H33            1.0848     3.1000    -0.0323 H       
  34 H34            6.4645    -0.2585    -0.0635 H       
  35 H35            6.3203     3.8912    -0.0851 H       
  36 H36            3.8596     3.8899    -0.0625 H       
  37 H37           -1.2103    -1.6559    -0.0635 H       
  38 H38           -3.4301     3.0889     0.6140 H       
  39 H39           -5.7459    -0.4729     0.0926 H       
  40 H40           -3.6221    -1.7382    -0.1317 H       
  41 H41            5.0883    -2.0098    -0.0654 H       
  42 H42            4.2849    -3.0453     1.8070 H       
  43 H43            2.9019    -1.9151     1.8382 H       
  44 H44            2.6301    -4.6339     1.3793 H       
  45 H45            1.4929    -3.4127     0.7271 H       
  46 H46            3.9010    -4.7043    -0.6688 H       
  47 H47            2.2255    -4.5166    -1.2837 H       
  48 H48            2.4809    -2.1401    -1.5763 H       
  49 H49            4.1014    -2.7386    -2.0511 H       
  50 H50           -4.8968     3.6061     1.5243 H       
  51 H51           -5.1624     3.9249    -0.2013 H       
  52 H52           -7.4808     3.7700     1.7712 H       
  53 H53           -6.5965     5.2879     1.4725 H       
  54 H54           -8.1738     5.5110    -0.1494 H       
  55 H55           -6.9977     4.5504    -1.0608 H       
  56 H56           -9.5510     3.7072     0.0756 H       
  57 H57           -8.2653     1.9710     0.9473 H       
  58 H58           -8.9002     1.4110    -0.6115 H       
  59 H59           -6.6091     2.5726    -1.4468 H       
  60 H60           -6.7185     0.8630    -0.9513 H       
@<TRIPOS>BOND
   1    1    2 ar
   2    1    6 ar
   3    2    3 ar
   4    2   14 1
   5    3    4 ar
   6    4    5 ar
   7    4    7 1
   8    5    6 ar
   9    5    9 1
  10    6   33 1
  11    7    8 1
  12    7   22 1
  13    8    9 ar
  14    8   10 ar
  15    9   13 ar
  16   10   11 ar
  17   10   34 1
  18   11   12 ar
  19   12   13 ar
  20   12   35 1
  21   13   36 1
  22   14   15 1
  23   14   37 1
  24   15   16 ar
  25   15   20 ar
  26   16   17 ar
  27   17   18 ar
  28   17   38 1
  29   18   19 ar
  30   18   21 1
  31   19   20 ar
  32   19   39 1
  33   20   40 1
  34   21   27 1
  35   21   32 1
  36   22   23 1
  37   22   26 1
  38   22   41 1
  39   23   24 1
  40   23   42 1
  41   23   43 1
  42   24   25 1
  43   24   44 1
  44   24   45 1
  45   25   26 1
  46   25   46 1
  47   25   47 1
  48   26   48 1
  49   26   49 1
  50   27   28 1
  51   27   50 1
  52   27   51 1
  53   28   29 1
  54   28   52 1
  55   28   53 1
  56   29   30 1
  57   29   54 1
  58   29   55 1
  59   30   31 1
  60   30   56 1
  61   31   32 1
  62   31   57 1
  63   31   58 1
  64   32   59 1
  65   32   60 1

#	End of record

