#	Name: ASD00960026
#	Creating user name:	WinNT
#	Creation time:	15. 06. 2019 18:53

#	Modifying user name:	WinNT
#	Modification time:	15. 06. 2019 18:53

#	Program:	/corina/corina34_cracker 3.40 0067  02.08.2006

@<TRIPOS>MOLECULE
ASD00960026
  35   37    0    0    0
SMALL
NO_CHARGES


@<TRIPOS>ATOM
   1 C1            -0.0189     1.5409     0.0105 C.3     
   2 C2             0.0021    -0.0041     0.0020 C.3     
   3 C3            -0.6985    -0.3962     1.3218 C.3     
   4 O4            -1.5292     0.7387     1.6500 O.3     
   5 C5            -0.7297     1.8993     1.3344 C.3     
   6 C6            -1.6237     3.1262     1.1437 C.3     
   7 F7             1.2846     2.0488     0.0008 F       
   8 C8            -1.5461    -1.6259     1.1205 C.2     
   9 C9            -1.1028    -2.9090     1.1904 C.2     
  10 N10           -2.8643    -1.6294     0.8485 N.pl3   
  11 C11           -3.2853    -2.9404     0.7334 C.2     
  12 C12           -2.1880    -3.7520     0.9461 C.2     
  13 N13           -3.8108    -0.6096     0.6759 N.2     
  14 C14           -5.0531    -0.9090     0.4138 C.2     
  15 N15           -5.4733    -2.1678     0.3000 N.2     
  16 C16           -4.6471    -3.1902     0.4471 C.2     
  17 O17           -2.2379     3.4662     2.3884 O.3     
  18 N18           -5.1091    -4.4851     0.3239 N.pl3   
  19 C19           -0.7764    -0.5442    -1.1993 C.3     
  20 O20            1.3471    -0.4865    -0.0166 O.3     
  21 *21            2.0811    -0.0947    -1.1549 Du      
  22 H22           -0.5818     1.9199    -0.8424 H       
  23 H23            0.0385    -0.5666     2.1065 H       
  24 H24            0.0026     2.0810     2.1211 H       
  25 H25           -1.0207     3.9646     0.7951 H       
  26 H26           -2.3953     2.9025     0.4070 H       
  27 H27           -0.0899    -3.2209     1.3982 H       
  28 H28           -2.1725    -4.8317     0.9264 H       
  29 H29           -5.7660    -0.1080     0.2848 H       
  30 H30           -2.8202     4.2368     2.3421 H       
  31 H31           -6.0448    -4.6497     0.1283 H       
  32 H32           -4.4980    -5.2305     0.4330 H       
  33 H33           -0.3071    -0.2001    -2.1209 H       
  34 H34           -0.7727    -1.6339    -1.1745 H       
  35 H35           -1.8042    -0.1834    -1.1582 H       
@<TRIPOS>BOND
   1    1    2 1
   2    1    7 1
   3    1    5 1
   4    1   22 1
   5    2   19 1
   6    2   20 1
   7    2    3 1
   8    3    4 1
   9    3    8 1
  10    3   23 1
  11    4    5 1
  12    5    6 1
  13    5   24 1
  14    6   17 1
  15    6   25 1
  16    6   26 1
  17    8    9 2
  18    8   10 1
  19    9   12 1
  20    9   27 1
  21   10   11 1
  22   10   13 1
  23   11   12 2
  24   11   16 1
  25   12   28 1
  26   13   14 2
  27   14   15 1
  28   14   29 1
  29   15   16 2
  30   16   18 1
  31   17   30 1
  32   18   31 1
  33   18   32 1
  34   19   33 1
  35   19   34 1
  36   19   35 1
  37   20   21 1

#	End of record

