#	Name: ASD01410524
#	Creating user name:	WinNT
#	Creation time:	15. 06. 2019 19:18

#	Modifying user name:	WinNT
#	Modification time:	15. 06. 2019 19:18

#	Program:	/corina/corina34_cracker 3.40 0067  02.08.2006

@<TRIPOS>MOLECULE
ASD01410524
  95   99    0    0    0
SMALL
NO_CHARGES


@<TRIPOS>ATOM
   1 C1             0.6237     1.4479     3.5996 C.ar    
   2 C2             1.1454     0.4306     4.3962 C.ar    
   3 C3             2.3706    -0.1280     4.0623 C.ar    
   4 N4             3.0384     0.2940     3.0056 N.ar    
   5 C5             2.5730     1.2571     2.2281 C.ar    
   6 C6             1.3536     1.8633     2.4999 C.ar    
   7 O7             3.2964     1.6584     1.1515 O.3     
   8 C8             4.5284     1.1124     0.9708 C.ar    
   9 C9             4.6483    -0.2318     0.6386 C.ar    
  10 C10            5.8941    -0.7962     0.4534 C.ar    
  11 C11            7.0378    -0.0233     0.5979 C.ar    
  12 C12            6.9236     1.3346     0.9327 C.ar    
  13 C13            5.6579     1.8978     1.1126 C.ar    
  14 N14            8.2959    -0.5943     0.4115 N.am    
  15 C15            8.8572    -0.6028    -0.8137 C.2     
  16 C16            9.0078    -1.1850     1.5475 C.3     
  17 O17            9.9245    -1.1519    -0.9880 O.2     
  18 C18            8.1587     0.0699    -1.9673 C.3     
  19 C19            8.6644    -0.5215    -3.2846 C.3     
  20 C20           10.1731    -0.2946    -3.3996 C.3     
  21 C21           10.4670     1.2065    -3.3684 C.3     
  22 C22            9.9614     1.7979    -2.0510 C.3     
  23 C23            8.4526     1.5711    -1.9360 C.3     
  24 N24            0.4426    -0.0217     5.5189 N.3     
  25 C25            8.2836    -0.8249     2.8463 C.3     
  26 C26            9.0463    -2.7064     1.3900 C.3     
  27 C27           11.9758     1.4334    -3.4834 C.3     
  28 C28            7.8526     1.0066     4.3312 C.3     
  29 O29            8.3931     0.5808     3.0788 O.3     
  30 O30            9.8635    -3.0486     0.2688 O.3     
  31 C31            9.9668    -4.4541     0.0323 C.3     
  32 C32            0.1435     1.0869     6.4343 C.3     
  33 C33            1.1779    -1.0924     6.2040 C.3     
  34 C34            0.3182    -1.6602     7.3356 C.3     
  35 C35           -0.0248    -0.5396     8.3211 C.3     
  36 C36           -0.7471     0.5841     7.5728 C.3     
  37 N37           -0.8984    -1.0660     9.3783 N.3     
  38 C38           -1.1520    -0.0483    10.4069 C.3     
  39 C39           -2.1579    -1.5724     8.8170 C.3     
  40 C40           -2.0485    -0.4407    11.5830 C.3     
  41 C41           -0.5417    -0.2758    11.7914 C.3     
  42 C42            8.1323     2.1635     1.0884 C.2     
  43 O43            9.2279     1.6885     0.8635 O.2     
  44 O44            8.0225     3.4482     1.4800 O.3     
  45 C45            0.8313     2.9598     1.6077 C.3     
  46 F46           -0.4050     3.4035     2.0891 F       
  47 F47            1.7379     4.0253     1.5987 F       
  48 F48            0.6761     2.4685     0.3070 F       
  49 H49           -0.3298     1.8985     3.8325 H       
  50 H50            2.7825    -0.9167     4.6743 H       
  51 H51            3.7618    -0.8381     0.5252 H       
  52 H52            5.9791    -1.8416     0.1957 H       
  53 H53            5.5619     2.9422     1.3703 H       
  54 H54           10.0259    -0.7971     1.5797 H       
  55 H55            7.0839    -0.0917    -1.8853 H       
  56 H56            8.4551    -1.5909    -3.3069 H       
  57 H57            8.1592    -0.0349    -4.1190 H       
  58 H58           10.6784    -0.7812    -2.5653 H       
  59 H59           10.5334    -0.7159    -4.3381 H       
  60 H60            9.9618     1.6931    -4.2027 H       
  61 H61           10.4666     1.3113    -1.2167 H       
  62 H62           10.1707     2.8674    -2.0288 H       
  63 H63            7.9474     2.0577    -2.7703 H       
  64 H64            8.0924     1.9924    -0.9975 H       
  65 H65            7.2317    -1.0987     2.7637 H       
  66 H66            8.7359    -1.3669     3.6768 H       
  67 H67            9.4616    -3.1547     2.2926 H       
  68 H68            8.0352    -3.0808     1.2304 H       
  69 H69           12.3360     1.0121    -4.4219 H       
  70 H70           12.1851     2.5028    -3.4611 H       
  71 H71           12.4810     0.9468    -2.6490 H       
  72 H72            6.7761     0.8353     4.3394 H       
  73 H73            8.3168     0.4403     5.1387 H       
  74 H74            8.0525     2.0689     4.4709 H       
  75 H75           10.6033    -4.6308    -0.8347 H       
  76 H76           10.4012    -4.9387     0.9067 H       
  77 H77            8.9748    -4.8648    -0.1555 H       
  78 H78            1.0735     1.4785     6.8466 H       
  79 H79           -0.3737     1.8774     5.8906 H       
  80 H80            1.4119    -1.8847     5.4930 H       
  81 H81            2.1030    -0.6906     6.6173 H       
  82 H82           -0.6010    -2.0746     6.9214 H       
  83 H83            0.8703    -2.4442     7.8538 H       
  84 H84            0.8921    -0.1513     8.7646 H       
  85 H85           -0.9560     1.4036     8.2604 H       
  86 H86           -1.6830     0.2051     7.1623 H       
  87 H87           -1.2149     0.9786    10.0468 H       
  88 H88           -1.9442    -2.3734     8.1092 H       
  89 H89           -2.7858    -1.9561     9.6211 H       
  90 H90           -2.6783    -0.7636     8.3041 H       
  91 H91           -2.7009     0.3281    11.9969 H       
  92 H92           -2.4501    -1.4540    11.5936 H       
  93 H93            0.0479    -1.1806    11.9390 H       
  94 H94           -0.2029     0.6015    12.3423 H       
  95 H95            8.8431     3.9520     1.5681 H       
@<TRIPOS>BOND
   1    1    2 ar
   2    1    6 ar
   3    1   49 1
   4    2    3 ar
   5    2   24 1
   6    3    4 ar
   7    3   50 1
   8    4    5 ar
   9    5    6 ar
  10    5    7 1
  11    6   45 1
  12    7    8 1
  13    8    9 ar
  14    8   13 ar
  15    9   10 ar
  16    9   51 1
  17   10   11 ar
  18   10   52 1
  19   11   12 ar
  20   11   14 1
  21   12   13 ar
  22   12   42 1
  23   13   53 1
  24   14   15 am
  25   14   16 1
  26   15   17 2
  27   15   18 1
  28   16   26 1
  29   16   25 1
  30   16   54 1
  31   18   19 1
  32   18   23 1
  33   18   55 1
  34   19   20 1
  35   19   56 1
  36   19   57 1
  37   20   21 1
  38   20   58 1
  39   20   59 1
  40   21   22 1
  41   21   27 1
  42   21   60 1
  43   22   23 1
  44   22   61 1
  45   22   62 1
  46   23   63 1
  47   23   64 1
  48   24   33 1
  49   24   32 1
  50   25   29 1
  51   25   65 1
  52   25   66 1
  53   26   30 1
  54   26   67 1
  55   26   68 1
  56   27   69 1
  57   27   70 1
  58   27   71 1
  59   28   29 1
  60   28   72 1
  61   28   73 1
  62   28   74 1
  63   30   31 1
  64   31   75 1
  65   31   76 1
  66   31   77 1
  67   32   36 1
  68   32   78 1
  69   32   79 1
  70   33   34 1
  71   33   80 1
  72   33   81 1
  73   34   35 1
  74   34   82 1
  75   34   83 1
  76   35   36 1
  77   35   37 1
  78   35   84 1
  79   36   85 1
  80   36   86 1
  81   37   38 1
  82   37   39 1
  83   38   40 1
  84   38   41 1
  85   38   87 1
  86   39   88 1
  87   39   89 1
  88   39   90 1
  89   40   41 1
  90   40   91 1
  91   40   92 1
  92   41   93 1
  93   41   94 1
  94   42   43 2
  95   42   44 1
  96   44   95 1
  97   45   46 1
  98   45   47 1
  99   45   48 1

#	End of record

