#	Name: ASD01816452
#	Creating user name:	WinNT
#	Creation time:	15. 06. 2019 19:35

#	Modifying user name:	WinNT
#	Modification time:	15. 06. 2019 19:35

#	Program:	/corina/corina34_cracker 3.40 0067  02.08.2006

@<TRIPOS>MOLECULE
ASD01816452
  53   58    0    0    0
SMALL
NO_CHARGES


@<TRIPOS>ATOM
   1 C1            -0.0167     1.3813     0.0096 C.ar    
   2 C2             0.0021    -0.0041     0.0020 C.ar    
   3 C3             1.1983    -0.6909    -0.0131 C.ar    
   4 C4             2.4015     0.0059    -0.0204 C.ar    
   5 C5             2.3790     1.4106    -0.0127 C.ar    
   6 C6             1.1662     2.0917     0.0022 C.ar    
   7 N7             3.6052    -0.6772    -0.0347 N.pl3   
   8 C8             4.7969    -0.0585    -0.0423 C.2     
   9 C9             4.8998     1.3103    -0.0359 C.2     
  10 C10            3.6669     2.1301    -0.0207 C.2     
  11 C11            5.9971     2.2731    -0.0400 C.2     
  12 N12            5.4245     3.4962    -0.0283 N.am    
  13 N13            4.0323     3.3801    -0.0169 N.2     
  14 C14            6.1232     4.7027    -0.0268 C.2     
  15 O15            7.1911     2.0231    -0.0511 O.2     
  16 C16            3.5778    -2.1419    -0.0413 C.3     
  17 C17            3.5554    -2.6375    -1.4643 C.ar    
  18 C18            4.7432    -2.8868    -2.1269 C.ar    
  19 C19            4.7259    -3.3406    -3.4313 C.ar    
  20 C20            3.5142    -3.5470    -4.0770 C.ar    
  21 C21            2.3232    -3.2962    -3.4089 C.ar    
  22 C22            2.3470    -2.8475    -2.1028 C.ar    
  23 N23            3.4933    -4.0071    -5.4010 N.pl3   
  24 C24            2.3885    -4.2484    -6.1424 C.2     
  25 C25            2.7951    -4.6778    -7.3595 C.2     
  26 C26            4.1941    -4.7000    -7.3632 C.2     
  27 N27            4.6135    -4.2927    -6.1923 N.2     
  28 C28            7.0961     5.1264    -0.9451 C.2     
  29 N29            7.4997     6.3162    -0.5846 N.2     
  30 N30            6.8922     6.7149     0.4738 N.pl3   
  31 C31            6.0017     5.7536     0.8856 C.2     
  32 C32            7.1117     8.0019     1.1385 C.3     
  33 C33            5.1442     5.8122     2.0069 C.2     
  34 O34            5.1486     6.7922     2.7241 O.2     
  35 H35           -0.9602     1.9069     0.0170 H       
  36 H36           -0.9289    -0.5515     0.0083 H       
  37 H37            1.2003    -1.7709    -0.0189 H       
  38 H38            1.1505     3.1716     0.0077 H       
  39 H39            5.6982    -0.6535    -0.0534 H       
  40 H40            4.4656    -2.5242     0.4626 H       
  41 H41            2.6860    -2.4910     0.4791 H       
  42 H42            5.6854    -2.7260    -1.6242 H       
  43 H43            5.6539    -3.5344    -3.9486 H       
  44 H44            1.3792    -3.4555    -3.9087 H       
  45 H45            1.4209    -2.6523    -1.5826 H       
  46 H46            1.3653    -4.1217    -5.8207 H       
  47 H47            2.1531    -4.9544    -8.1827 H       
  48 H48            4.8202    -4.9978    -8.1913 H       
  49 H49            7.4495     4.5677    -1.7991 H       
  50 H50            6.4326     8.7461     0.7226 H       
  51 H51            6.9240     7.8956     2.2070 H       
  52 H52            8.1417     8.3214     0.9805 H       
  53 H53            4.4849     4.9854     2.2263 H       
@<TRIPOS>BOND
   1    1    2 ar
   2    1    6 ar
   3    1   35 1
   4    2    3 ar
   5    2   36 1
   6    3    4 ar
   7    3   37 1
   8    4    5 ar
   9    4    7 1
  10    5    6 ar
  11    5   10 1
  12    6   38 1
  13    7    8 1
  14    7   16 1
  15    8    9 2
  16    8   39 1
  17    9   10 1
  18    9   11 1
  19   10   13 2
  20   11   12 am
  21   11   15 2
  22   12   13 1
  23   12   14 1
  24   14   28 1
  25   14   31 2
  26   16   17 1
  27   16   40 1
  28   16   41 1
  29   17   18 ar
  30   17   22 ar
  31   18   19 ar
  32   18   42 1
  33   19   20 ar
  34   19   43 1
  35   20   21 ar
  36   20   23 1
  37   21   22 ar
  38   21   44 1
  39   22   45 1
  40   23   24 1
  41   23   27 1
  42   24   25 2
  43   24   46 1
  44   25   26 1
  45   25   47 1
  46   26   27 2
  47   26   48 1
  48   28   29 2
  49   28   49 1
  50   29   30 1
  51   30   31 1
  52   30   32 1
  53   31   33 1
  54   32   50 1
  55   32   51 1
  56   32   52 1
  57   33   34 2
  58   33   53 1

#	End of record

