#	Name: ASD05430235
#	Creating user name:	WinNT
#	Creation time:	15. 06. 2019 21:00

#	Modifying user name:	WinNT
#	Modification time:	15. 06. 2019 21:00

#	Program:	/corina/corina34_cracker 3.40 0067  02.08.2006

@<TRIPOS>MOLECULE
ASD05430235
  66   72    0    0    0
SMALL
NO_CHARGES


@<TRIPOS>ATOM
   1 C1            -0.0101     1.3706    -0.1611 C.ar    
   2 C2             0.0204    -0.0144    -0.3187 C.ar    
   3 C3             1.2360    -0.6834    -0.3779 C.ar    
   4 C4             2.4180     0.0184    -0.2813 C.ar    
   5 C5             2.3953     1.4081    -0.1236 C.ar    
   6 C6             1.1714     2.0814    -0.0640 C.ar    
   7 O7             4.9236     0.1305     0.2058 O.3     
   8 C8             4.8303     1.4989     0.0687 C.2     
   9 C9             3.6564     2.1594    -0.0198 C.2     
  10 C10            5.8335    -0.5181    -0.6814 C.3     
  11 C11            7.2631     0.0154    -0.6641 C.3     
  12 N12            7.2792     1.4452    -0.3824 N.pl3   
  13 C13            6.1536     2.1720     0.0284 C.2     
  14 N14            6.4747     3.3743     0.3542 N.2     
  15 C15            8.7248     2.7478    -1.8828 C.ar    
  16 C16           10.0787     2.4502    -2.0699 C.ar    
  17 C17            7.9433     3.2654    -2.9011 C.ar    
  18 C18            8.5595     3.4828    -4.1285 C.ar    
  19 C19            9.8982     3.1928    -4.3238 C.ar    
  20 C20           10.6877     2.6729    -3.3083 C.ar    
  21 F21           10.4510     3.4217    -5.5351 F       
  22 N22           -1.1793    -0.7338    -0.4171 N.pl3   
  23 C23           -1.4982    -1.6590    -1.3769 C.2     
  24 C24           -2.7385    -2.1018    -1.0951 C.2     
  25 N25           -3.1694    -1.4678     0.0054 N.2     
  26 C26           -2.2423    -0.6497     0.4240 C.2     
  27 C27           -3.5091    -3.1314    -1.8807 C.3     
  28 C28           -1.1584     3.4417     0.0541 C.3     
  29 O29           -1.2019     2.0226    -0.1087 O.3     
  30 C30            5.7649    -2.0526    -0.5889 C.3     
  31 N31            5.8236    -2.0437    -2.0636 N.am    
  32 C32            5.2688    -0.6766    -2.1040 C.3     
  33 C33            6.2237    -2.9285    -2.9981 C.2     
  34 O34            6.6514    -4.0128    -2.6630 O.2     
  35 C35            6.1397    -2.5706    -4.4596 C.3     
  36 C36            8.3627     2.4125    -0.4741 C.3     
  37 O37            7.8825     3.5576     0.2435 O.3     
  38 N38           10.6569     1.9425    -0.9165 N.pl3   
  39 C39            9.6533     1.8767     0.1577 C.3     
  40 F40            7.8359     3.9873    -5.1518 F       
  41 H41            1.2550    -1.7564    -0.4997 H       
  42 H42            3.3619    -0.5046    -0.3270 H       
  43 H43            1.1492     3.1544     0.0574 H       
  44 H44            3.6428     3.2393    -0.0143 H       
  45 H45            7.8318    -0.5079     0.1045 H       
  46 H46            7.7245    -0.1639    -1.6351 H       
  47 H47            6.8981     3.4908    -2.7488 H       
  48 H48           11.7320     2.4490    -3.4683 H       
  49 H49           -0.8746    -1.9726    -2.2010 H       
  50 H50           -2.3116    -0.0083     1.2902 H       
  51 H51           -3.2960    -4.1245    -1.4852 H       
  52 H52           -4.5767    -2.9282    -1.7968 H       
  53 H53           -3.2119    -3.0861    -2.9284 H       
  54 H54           -0.6176     3.8868    -0.7810 H       
  55 H55           -2.1744     3.8357     0.0803 H       
  56 H56           -0.6502     3.6849     0.9872 H       
  57 H57            6.6378    -2.5037    -0.1171 H       
  58 H58            4.8226    -2.4270    -0.1889 H       
  59 H59            4.1803    -0.6455    -2.1506 H       
  60 H60            5.7461    -0.0304    -2.8407 H       
  61 H61            7.0704    -2.0968    -4.7717 H       
  62 H62            5.9777    -3.4748    -5.0464 H       
  63 H63            5.3102    -1.8814    -4.6178 H       
  64 H64           11.5843     1.6714    -0.8305 H       
  65 H65            9.9539     2.5048     0.9963 H       
  66 H66            9.5155     0.8462     0.4851 H       
@<TRIPOS>BOND
   1    1    2 ar
   2    1    6 ar
   3    1   29 1
   4    2    3 ar
   5    2   22 1
   6    3    4 ar
   7    3   41 1
   8    4    5 ar
   9    4   42 1
  10    5    6 ar
  11    5    9 1
  12    6   43 1
  13    7    8 1
  14    7   10 1
  15    8    9 2
  16    8   13 1
  17    9   44 1
  18   10   11 1
  19   10   30 1
  20   10   32 1
  21   11   12 1
  22   11   45 1
  23   11   46 1
  24   12   13 1
  25   12   36 1
  26   13   14 2
  27   14   37 1
  28   15   16 ar
  29   15   17 ar
  30   15   36 1
  31   16   38 1
  32   16   20 ar
  33   17   18 ar
  34   17   47 1
  35   18   19 ar
  36   18   40 1
  37   19   20 ar
  38   19   21 1
  39   20   48 1
  40   22   23 1
  41   22   26 1
  42   23   24 2
  43   23   49 1
  44   24   25 1
  45   24   27 1
  46   25   26 2
  47   26   50 1
  48   27   51 1
  49   27   52 1
  50   27   53 1
  51   28   29 1
  52   28   54 1
  53   28   55 1
  54   28   56 1
  55   30   31 1
  56   30   57 1
  57   30   58 1
  58   31   32 1
  59   31   33 am
  60   32   59 1
  61   32   60 1
  62   33   34 2
  63   33   35 1
  64   35   61 1
  65   35   62 1
  66   35   63 1
  67   36   37 1
  68   36   39 1
  69   38   39 1
  70   38   64 1
  71   39   65 1
  72   39   66 1

#	End of record

