#	Name: ASD01670002
#	Creating user name:	WinNT
#	Creation time:	15. 06. 2019 19:22

#	Modifying user name:	WinNT
#	Modification time:	15. 06. 2019 19:22

#	Program:	/corina/corina34_cracker 3.40 0067  02.08.2006

@<TRIPOS>MOLECULE
ASD01670002
  49   51    0    0    0
SMALL
NO_CHARGES


@<TRIPOS>ATOM
   1 C1            -0.0164     1.3592     0.0095 C.ar    
   2 C2             0.0021    -0.0041     0.0020 C.ar    
   3 C3             1.1710     2.0891     0.0021 C.ar    
   4 C4             2.3792     1.4628    -0.0133 C.ar    
   5 C5             2.4371     0.0578    -0.0214 C.ar    
   6 C6             1.2290    -0.6801    -0.0133 C.ar    
   7 N7             3.6111    -0.5822    -0.0360 N.ar    
   8 C8             3.6839    -1.8917    -0.0433 C.ar    
   9 C9             2.5463    -2.6903    -0.0368 C.ar    
  10 C10            1.2911    -2.0967    -0.0216 C.ar    
  11 Br11          -1.6731     2.2709     0.0223 Br      
  12 C12            0.0577    -2.9163    -0.0141 C.ar    
  13 C13           -0.7971    -2.8848     1.0879 C.ar    
  14 C14           -1.9446    -3.6503     1.0894 C.ar    
  15 C15           -2.2488    -4.4489    -0.0002 C.ar    
  16 C16           -1.4039    -4.4840    -1.0967 C.ar    
  17 C17           -0.2566    -3.7182    -1.1115 C.ar    
  18 Cl18          -3.6943    -5.4102     0.0088 Cl      
  19 C19            5.0397    -2.5493    -0.0598 C.3     
  20 C20            2.6745    -4.1918    -0.0467 C.3     
  21 C21            3.0702    -4.6530    -1.4258 C.2     
  22 O22            3.6735    -4.5908     0.8939 O.3     
  23 C23            3.4471    -5.8782     1.4713 C.3     
  24 C24            3.4201    -6.9354     0.3656 C.3     
  25 C25            4.5719    -6.2000     2.4572 C.3     
  26 C26            2.1068    -5.8776     2.2091 C.3     
  27 O27            4.1427    -5.1809    -1.6017 O.2     
  28 O28            2.2311    -4.4775    -2.4587 O.3     
  29 H29           -0.9240    -0.5597     0.0082 H       
  30 H30            1.1317     3.1683     0.0083 H       
  31 H31            3.2902     2.0429    -0.0196 H       
  32 H32           -0.5606    -2.2626     1.9383 H       
  33 H33           -2.6069    -3.6270     1.9422 H       
  34 H34           -1.6459    -5.1086    -1.9439 H       
  35 H35            0.4015    -3.7460    -1.9674 H       
  36 H36            5.3765    -2.7130     0.9638 H       
  37 H37            4.9732    -3.5060    -0.5779 H       
  38 H38            5.7500    -1.9045    -0.5773 H       
  39 H39            1.7190    -4.6398     0.2260 H       
  40 H40            4.3749    -6.9358    -0.1601 H       
  41 H41            3.2474    -7.9174     0.8060 H       
  42 H42            2.6187    -6.7062    -0.3368 H       
  43 H43            4.5911    -5.4468     3.2449 H       
  44 H44            4.3992    -7.1819     2.8976 H       
  45 H45            5.5268    -6.2004     1.9315 H       
  46 H46            1.3054    -5.6484     1.5067 H       
  47 H47            1.9340    -6.8596     2.6495 H       
  48 H48            2.1260    -5.1244     2.9968 H       
  49 H49            2.5288    -4.7896    -3.3241 H       
@<TRIPOS>BOND
   1    1    2 ar
   2    1    3 ar
   3    1   11 1
   4    2    6 ar
   5    2   29 1
   6    3    4 ar
   7    3   30 1
   8    4    5 ar
   9    4   31 1
  10    5    6 ar
  11    5    7 ar
  12    6   10 ar
  13    7    8 ar
  14    8    9 ar
  15    8   19 1
  16    9   10 ar
  17    9   20 1
  18   10   12 1
  19   12   13 ar
  20   12   17 ar
  21   13   14 ar
  22   13   32 1
  23   14   15 ar
  24   14   33 1
  25   15   16 ar
  26   15   18 1
  27   16   17 ar
  28   16   34 1
  29   17   35 1
  30   19   36 1
  31   19   37 1
  32   19   38 1
  33   20   21 1
  34   20   22 1
  35   20   39 1
  36   21   27 2
  37   21   28 1
  38   22   23 1
  39   23   24 1
  40   23   25 1
  41   23   26 1
  42   24   40 1
  43   24   41 1
  44   24   42 1
  45   25   43 1
  46   25   44 1
  47   25   45 1
  48   26   46 1
  49   26   47 1
  50   26   48 1
  51   28   49 1

#	End of record

