#	Name: ASD01917229
#	Creating user name:	WinNT
#	Creation time:	15. 06. 2019 20:08

#	Modifying user name:	WinNT
#	Modification time:	15. 06. 2019 20:08

#	Program:	/corina/corina34_cracker 3.40 0067  02.08.2006

@<TRIPOS>MOLECULE
ASD01917229
  49   52    0    0    0
SMALL
NO_CHARGES


@<TRIPOS>ATOM
   1 C1            -0.0171     1.4084     0.0098 C.ar    
   2 C2             0.0021    -0.0041     0.0020 C.ar    
   3 C3            -1.1925    -0.7196     0.0400 C.ar    
   4 C4            -2.3902    -0.0393     0.0716 C.ar    
   5 C5            -2.4136     1.3494     0.0659 C.ar    
   6 C6            -1.2441     2.0748     0.0361 C.ar    
   7 N7             1.1593     2.0732     0.0021 N.2     
   8 C8             2.3195     1.4657    -0.0392 C.2     
   9 N9             2.4203     0.1177    -0.1560 N.am    
  10 C10            1.3102    -0.6646    -0.0612 C.2     
  11 C11           -3.7362     2.0712     0.0928 C.3     
  12 O12            1.4007    -1.8781    -0.0293 O.2     
  13 O13           -4.1237     2.3053     1.4482 O.3     
  14 C14            3.5352     2.3436     0.1019 C.3     
  15 C15            4.7917     1.6909    -0.4307 C.3     
  16 C16            4.8967     0.2349    -0.0255 C.3     
  17 C17            3.6799    -0.5639    -0.4341 C.3     
  18 C18            6.1350    -0.3754    -0.6852 C.3     
  19 C19            5.0563     0.1533     1.4939 C.3     
  20 C20           -5.3714     2.9881     1.5863 C.3     
  21 C21           -5.6793     3.1808     3.0489 C.ar    
  22 N22           -6.7912     3.7932     3.4056 N.ar    
  23 C23           -7.1019     3.9841     4.6730 C.ar    
  24 C24           -6.2640     3.5446     5.6801 C.ar    
  25 C25           -5.0854     2.8961     5.3437 C.ar    
  26 C26           -4.7956     2.7084     4.0011 C.ar    
  27 H27           -1.1799    -1.7995     0.0441 H       
  28 H28           -3.3185    -0.5905     0.1008 H       
  29 H29           -1.2753     3.1544     0.0327 H       
  30 H30           -3.6407     3.0241    -0.4276 H       
  31 H31           -4.4929     1.4616    -0.4013 H       
  32 H32            3.3635     3.2725    -0.4420 H       
  33 H33            3.6800     2.5773     1.1566 H       
  34 H34            4.7901     1.7560    -1.5188 H       
  35 H35            5.6591     2.2282    -0.0472 H       
  36 H36            3.6891    -1.5133     0.1012 H       
  37 H37            3.7384    -0.7678    -1.5033 H       
  38 H38            7.0240     0.1632    -0.3573 H       
  39 H39            6.2193    -1.4239    -0.3995 H       
  40 H40            6.0436    -0.3003    -1.7688 H       
  41 H41            4.1904     0.6080     1.9751 H       
  42 H42            5.1328    -0.8914     1.7956 H       
  43 H43            5.9594     0.6850     1.7935 H       
  44 H44           -5.3098     3.9601     1.0969 H       
  45 H45           -6.1619     2.3976     1.1233 H       
  46 H46           -8.0217     4.4900     4.9267 H       
  47 H47           -6.5237     3.7045     6.7162 H       
  48 H48           -4.4111     2.5421     6.1095 H       
  49 H49           -3.8867     2.2071     3.7027 H       
@<TRIPOS>BOND
   1    1    2 ar
   2    1    7 1
   3    1    6 ar
   4    2    3 ar
   5    2   10 1
   6    3    4 ar
   7    3   27 1
   8    4    5 ar
   9    4   28 1
  10    5    6 ar
  11    5   11 1
  12    6   29 1
  13    7    8 2
  14    8    9 1
  15    8   14 1
  16    9   10 am
  17    9   17 1
  18   10   12 2
  19   11   13 1
  20   11   30 1
  21   11   31 1
  22   13   20 1
  23   14   15 1
  24   14   32 1
  25   14   33 1
  26   15   16 1
  27   15   34 1
  28   15   35 1
  29   16   17 1
  30   16   18 1
  31   16   19 1
  32   17   36 1
  33   17   37 1
  34   18   38 1
  35   18   39 1
  36   18   40 1
  37   19   41 1
  38   19   42 1
  39   19   43 1
  40   20   21 1
  41   20   44 1
  42   20   45 1
  43   21   22 ar
  44   21   26 ar
  45   22   23 ar
  46   23   24 ar
  47   23   46 1
  48   24   25 ar
  49   24   47 1
  50   25   26 ar
  51   25   48 1
  52   26   49 1

#	End of record

