#	Name: ASD03430962
#	Creating user name:	WinNT
#	Creation time:	15. 06. 2019 20:41

#	Modifying user name:	WinNT
#	Modification time:	15. 06. 2019 20:41

#	Program:	/corina/corina34_cracker 3.40 0067  02.08.2006

@<TRIPOS>MOLECULE
ASD03430962
  67   73    0    0    0
SMALL
NO_CHARGES


@<TRIPOS>ATOM
   1 O1            -0.4313     1.1674     1.1715 O.3     
   2 C2            -0.3685    -0.2696     1.2372 C.3     
   3 O3             0.7311    -0.6040     0.3701 O.3     
   4 C4             1.5549     0.4851     0.3881 C.ar    
   5 C5             0.8390     1.5744     0.8794 C.ar    
   6 C6             2.8797     0.6371     0.0205 C.ar    
   7 C7             3.5057     1.8746     0.1355 C.ar    
   8 C8             2.7776     2.9579     0.6182 C.ar    
   9 C9             1.4583     2.8079     0.9916 C.ar    
  10 O10            4.7911     2.2309    -0.1491 O.3     
  11 C11            3.7061     4.1425     0.5966 C.3     
  12 C12            4.8685     3.6631    -0.2837 C.3     
  13 N13            3.1359     6.3210     0.9858 N.am    
  14 C14            3.0485     5.3700     0.0344 C.2     
  15 C15            4.1674     4.5326     1.9692 C.ar    
  16 C16            4.8349     3.8609     2.9842 C.ar    
  17 C17            5.1277     4.5212     4.1772 C.ar    
  18 C18            4.7505     5.8395     4.3399 C.ar    
  19 C19            4.0865     6.5067     3.3308 C.ar    
  20 C20            3.7879     5.8601     2.1326 C.ar    
  21 O21            2.5386     5.4833    -1.0602 O.2     
  22 C22            2.6088     7.6795     0.8350 C.3     
  23 S23           -0.8998     7.9987     2.7089 S.3     
  24 C24           -1.0156     7.4731     1.0861 C.2     
  25 N25            0.1593     7.3980     0.5579 N.2     
  26 C26            1.1832     7.7220     1.3216 C.2     
  27 C27            0.8537     8.0910     2.5631 C.2     
  28 C28           -2.3034     7.1451     0.3754 C.3     
  29 C29           -3.0162     6.0083     1.1104 C.3     
  30 C30           -3.2035     8.3821     0.3541 C.3     
  31 C31            6.1305     2.0895     1.7941 C.ar    
  32 C32            5.2363     2.4445     2.8002 C.ar    
  33 C33            4.7216     1.4471     3.6359 C.ar    
  34 C34            5.1243     0.1427     3.4271 C.ar    
  35 C35            6.0220    -0.1352     2.4003 C.ar    
  36 N36            6.4904     0.8329     1.6269 N.ar    
  37 N37            6.4324    -1.4447     2.1841 N.pl3   
  38 C38            5.8390    -2.5360     2.9607 C.3     
  39 C39            7.4586    -1.7344     1.1794 C.3     
  40 H40           -0.1658    -0.5978     2.2566 H       
  41 H41           -1.2946    -0.7106     0.8687 H       
  42 H42            3.4320    -0.2104    -0.3580 H       
  43 H43            0.9066     3.6549     1.3720 H       
  44 H44            5.8201     4.0366     0.0945 H       
  45 H45            4.7182     3.9633    -1.3207 H       
  46 H46            5.6467     4.0037     4.9705 H       
  47 H47            4.9764     6.3519     5.2634 H       
  48 H48            3.7962     7.5376     3.4703 H       
  49 H49            3.2137     8.3711     1.4215 H       
  50 H50            2.6429     7.9679    -0.2156 H       
  51 H51            1.5409     8.3925     3.3398 H       
  52 H52           -2.0857     6.8365    -0.6471 H       
  53 H53           -3.2339     6.3168     2.1329 H       
  54 H54           -3.9477     5.7710     0.5964 H       
  55 H55           -2.3749     5.1270     1.1256 H       
  56 H56           -2.6956     9.1921    -0.1696 H       
  57 H57           -4.1349     8.1449    -0.1599 H       
  58 H58           -3.4212     8.6907     1.3766 H       
  59 H59            6.5299     2.8513     1.1410 H       
  60 H60            4.0264     1.6916     4.4254 H       
  61 H61            4.7475    -0.6523     4.0534 H       
  62 H62            4.7637    -2.5645     2.7844 H       
  63 H63            6.2827    -3.4832     2.6541 H       
  64 H64            6.0290    -2.3723     4.0214 H       
  65 H65            8.4436    -1.6952     1.6445 H       
  66 H66            7.2915    -2.7288     0.7656 H       
  67 H67            7.4042    -0.9946     0.3808 H       
@<TRIPOS>BOND
   1    1    2 1
   2    1    5 1
   3    2    3 1
   4    2   40 1
   5    2   41 1
   6    3    4 1
   7    4    5 ar
   8    4    6 ar
   9    5    9 ar
  10    6    7 ar
  11    6   42 1
  12    7    8 ar
  13    7   10 1
  14    8    9 ar
  15    8   11 1
  16    9   43 1
  17   10   12 1
  18   11   12 1
  19   11   14 1
  20   11   15 1
  21   12   44 1
  22   12   45 1
  23   13   14 am
  24   13   20 1
  25   13   22 1
  26   14   21 2
  27   15   16 ar
  28   15   20 ar
  29   16   17 ar
  30   16   32 1
  31   17   18 ar
  32   17   46 1
  33   18   19 ar
  34   18   47 1
  35   19   20 ar
  36   19   48 1
  37   22   26 1
  38   22   49 1
  39   22   50 1
  40   23   24 1
  41   23   27 1
  42   24   25 2
  43   24   28 1
  44   25   26 1
  45   26   27 2
  46   27   51 1
  47   28   29 1
  48   28   30 1
  49   28   52 1
  50   29   53 1
  51   29   54 1
  52   29   55 1
  53   30   56 1
  54   30   57 1
  55   30   58 1
  56   31   32 ar
  57   31   36 ar
  58   31   59 1
  59   32   33 ar
  60   33   34 ar
  61   33   60 1
  62   34   35 ar
  63   34   61 1
  64   35   36 ar
  65   35   37 1
  66   37   38 1
  67   37   39 1
  68   38   62 1
  69   38   63 1
  70   38   64 1
  71   39   65 1
  72   39   66 1
  73   39   67 1

#	End of record

