#	Name: ASD01916457
#	Creating user name:	WinNT
#	Creation time:	15. 06. 2019 20:07

#	Modifying user name:	WinNT
#	Modification time:	15. 06. 2019 20:07

#	Program:	/corina/corina34_cracker 3.40 0067  02.08.2006

@<TRIPOS>MOLECULE
ASD01916457
  28   29    0    0    0
SMALL
NO_CHARGES


@<TRIPOS>ATOM
   1 O1            -0.0144     1.2087     0.0087 O.3     
   2 N2             0.0021    -0.0041     0.0020 N.2     
   3 C3             1.2360    -0.4366    -0.0121 C.2     
   4 N4             2.0401     0.6504    -0.0139 N.2     
   5 C5             1.2351     1.6835    -0.0007 C.2     
   6 C6             1.6722    -1.8553    -0.0234 C.ar    
   7 C7             0.7256    -2.8779    -0.0199 C.ar    
   8 C8             2.4858    -4.5013    -0.0451 C.ar    
   9 C9             3.0292    -2.1692    -0.0434 C.ar    
  10 C10            1.1367    -4.1952    -0.0310 C.ar    
  11 C11            3.4294    -3.4903    -0.0544 C.ar    
  12 C12           -0.7443    -2.5460    -0.0036 C.3     
  13 C13            1.6412     3.1347     0.0028 C.3     
  14 C14            1.7645     3.6333    -1.4385 C.3     
  15 C15            2.1612     5.0508    -1.4351 C.1     
  16 C16            2.4776     6.1814    -1.4324 C.1     
  17 H17            2.8032    -5.5336    -0.0534 H       
  18 H18            3.7669    -1.3804    -0.0507 H       
  19 H19            0.4040    -4.9886    -0.0283 H       
  20 H20            4.4813    -3.7348    -0.0651 H       
  21 H21           -1.1088    -2.4601    -1.0273 H       
  22 H22           -1.2897    -3.3370     0.5111 H       
  23 H23           -0.8975    -1.6008     0.5171 H       
  24 H24            0.8872     3.7218     0.5271 H       
  25 H25            2.6012     3.2422     0.5078 H       
  26 H26            2.5185     3.0462    -1.9628 H       
  27 H27            0.8045     3.5259    -1.9434 H       
  28 H28            2.7605     7.1925    -1.4299 H       
@<TRIPOS>BOND
   1    1    2 1
   2    1    5 1
   3    2    3 2
   4    3    4 1
   5    3    6 1
   6    4    5 2
   7    5   13 1
   8    6    7 ar
   9    6    9 ar
  10    7   10 ar
  11    7   12 1
  12    8   10 ar
  13    8   11 ar
  14    8   17 1
  15    9   11 ar
  16    9   18 1
  17   10   19 1
  18   11   20 1
  19   12   21 1
  20   12   22 1
  21   12   23 1
  22   13   14 1
  23   13   24 1
  24   13   25 1
  25   14   15 1
  26   14   26 1
  27   14   27 1
  28   15   16 3
  29   16   28 1

#	End of record

