#	Name: ASD01870351
#	Creating user name:	WinNT
#	Creation time:	15. 06. 2019 19:39

#	Modifying user name:	WinNT
#	Modification time:	15. 06. 2019 19:39

#	Program:	/corina/corina34_cracker 3.40 0067  02.08.2006

@<TRIPOS>MOLECULE
ASD01870351
  53   57    0    0    0
SMALL
NO_CHARGES


@<TRIPOS>ATOM
   1 N1            -0.0170     1.4024     0.0098 N.am    
   2 C2             0.0021    -0.0041     0.0020 C.3     
   3 C3             1.1546     2.0684     0.0021 C.2     
   4 C4             2.4546     1.3063    -0.0144 C.3     
   5 O5             1.1628     3.2812     0.0086 O.2     
   6 C6             3.7020     2.2084    -0.0214 C.3     
   7 N7             4.2711     1.2586     0.9542 N.am    
   8 C8             2.9198     0.8440     1.3784 C.3     
   9 S9             5.8086     0.8301     1.3957 S.o2    
  10 C10            6.2916     1.9008     2.7092 C.ar    
  11 C11            6.4337     3.2917     2.4754 C.ar    
  12 O12            5.7173    -0.4735     1.9537 O.2     
  13 O13            6.6458     1.1462     0.2919 O.2     
  14 C14            6.5223     1.3966     3.9456 C.ar    
  15 C15            6.9060     2.2147     5.0083 C.ar    
  16 C16            7.0656     3.5513     4.8532 C.ar    
  17 C17            6.8356     4.1484     3.5882 C.ar    
  18 N18            6.9236     5.4085     3.1940 N.2     
  19 S19            6.5578     5.5053     1.6853 S.3     
  20 N20            6.2624     4.0096     1.3770 N.2     
  21 C21           -0.7614    -0.5506    -1.2312 C.3     
  22 N22           -2.1799    -0.3436    -1.0231 N.3     
  23 C23           -2.7268     0.9008    -1.6026 C.3     
  24 C24           -1.8394     2.1235    -1.3753 C.3     
  25 C25           -1.2758     2.1752     0.0198 C.3     
  26 C26           -2.9120    -1.4514    -1.4396 C.ar    
  27 C27           -2.6459    -2.7199    -0.9241 C.ar    
  28 C28           -3.3941    -3.7918    -1.3630 C.ar    
  29 N29           -4.3501    -3.6285    -2.2583 N.ar    
  30 C30           -4.6323    -2.4449    -2.7697 C.ar    
  31 C31           -3.9347    -1.3214    -2.3790 C.ar    
  32 H32            1.0353    -0.3496    -0.0324 H       
  33 H33           -0.4707    -0.3752     0.9113 H       
  34 H34            2.4770     0.5206    -0.7695 H       
  35 H35            4.2271     2.2246    -0.9765 H       
  36 H36            3.5264     3.2041     0.3858 H       
  37 H37            2.5143     1.4389     2.1969 H       
  38 H38            2.8203    -0.2292     1.5410 H       
  39 H39            6.4061     0.3359     4.1124 H       
  40 H40            7.0797     1.7722     5.9781 H       
  41 H41            7.3631     4.1615     5.6931 H       
  42 H42           -0.4409    -0.0172    -2.1261 H       
  43 H43           -0.5595    -1.6157    -1.3443 H       
  44 H44           -2.8560     0.7584    -2.6755 H       
  45 H45           -3.7040     1.0919    -1.1591 H       
  46 H46           -1.0141     2.0977    -2.0869 H       
  47 H47           -2.4274     3.0241    -1.5524 H       
  48 H48           -1.9783     1.7261     0.7220 H       
  49 H49           -1.0749     3.2086     0.3022 H       
  50 H50           -1.8646    -2.8605    -0.1919 H       
  51 H51           -3.1950    -4.7777    -0.9694 H       
  52 H52           -5.4227    -2.3544    -3.5001 H       
  53 H53           -4.1709    -0.3558    -2.8012 H       
@<TRIPOS>BOND
   1    1    2 1
   2    1    3 am
   3    1   25 1
   4    2   21 1
   5    2   32 1
   6    2   33 1
   7    3    4 1
   8    3    5 2
   9    4    6 1
  10    4    8 1
  11    4   34 1
  12    6    7 1
  13    6   35 1
  14    6   36 1
  15    7    8 1
  16    7    9 am
  17    8   37 1
  18    8   38 1
  19    9   10 1
  20    9   12 2
  21    9   13 2
  22   10   14 ar
  23   10   11 ar
  24   11   17 ar
  25   11   20 2
  26   14   15 ar
  27   14   39 1
  28   15   16 ar
  29   15   40 1
  30   16   17 ar
  31   16   41 1
  32   17   18 2
  33   18   19 1
  34   19   20 1
  35   21   22 1
  36   21   42 1
  37   21   43 1
  38   22   23 1
  39   22   26 1
  40   23   24 1
  41   23   44 1
  42   23   45 1
  43   24   25 1
  44   24   46 1
  45   24   47 1
  46   25   48 1
  47   25   49 1
  48   26   27 ar
  49   26   31 ar
  50   27   28 ar
  51   27   50 1
  52   28   29 ar
  53   28   51 1
  54   29   30 ar
  55   30   31 ar
  56   30   52 1
  57   31   53 1

#	End of record

