#	Name: ASD00170733
#	Creating user name:	WinNT
#	Creation time:	15. 06. 2019 18:32

#	Modifying user name:	WinNT
#	Modification time:	15. 06. 2019 18:32

#	Program:	/corina/corina34_cracker 3.40 0067  02.08.2006

@<TRIPOS>MOLECULE
ASD00170733
  82   88    0    0    0
SMALL
NO_CHARGES


@<TRIPOS>ATOM
   1 C1            -0.0048     1.3787     0.1010 C.2     
   2 O2             0.5273     1.0855     1.1563 O.2     
   3 C3             0.6433     1.0195    -1.1788 C.ar    
   4 C4             1.9128     0.4383    -1.1825 C.ar    
   5 C5             2.5123     0.1053    -2.3799 C.ar    
   6 C6             1.8563     0.3475    -3.5771 C.ar    
   7 C7             0.5973     0.9236    -3.5785 C.ar    
   8 C8            -0.0143     1.2548    -2.3873 C.ar    
   9 Cl9            2.6167    -0.0728    -5.0801 Cl      
  10 Cl10           4.0907    -0.6174    -2.3873 Cl      
  11 C11           -5.0492     1.8253    -0.0819 C.3     
  12 C12           -3.5994     2.2587     0.0136 C.2     
  13 C13           -2.5676     1.4066    -0.0066 C.2     
  14 C14           -2.7500    -0.0985    -0.1283 C.3     
  15 C15           -4.2100    -0.4305     0.1963 C.3     
  16 N16           -5.0937     0.4448    -0.5862 N.3     
  17 C17           -1.2879     2.0810     0.0992 C.2     
  18 C18           -1.4031     3.4453     0.1979 C.2     
  19 S19           -3.0398     3.9145     0.1636 S.3     
  20 C20           -6.4701    -0.0685    -0.5947 C.3     
  21 C21           -7.3011     0.7172    -1.6110 C.3     
  22 C22           -8.7347     0.1826    -1.6199 C.3     
  23 O23           -9.5109     0.9165    -2.5691 O.3     
  24 C24          -10.8176     0.5645    -2.7021 C.ar    
  25 C25          -11.6279     1.2361    -3.6058 C.ar    
  26 C26          -12.9549     0.8790    -3.7418 C.ar    
  27 C27          -13.4782    -0.1528    -2.9736 C.ar    
  28 C28          -12.6663    -0.8246    -2.0691 C.ar    
  29 C29          -11.3381    -0.4697    -1.9381 C.ar    
  30 N30          -14.8235    -0.5151    -3.1105 N.pl3   
  31 N31          -17.8140    -1.0082    -3.6271 N.2     
  32 C32          -18.9312    -1.1175    -4.2856 C.2     
  33 N33          -18.7187    -0.8655    -5.6083 N.pl3   
  34 C34          -17.3849    -0.5844    -5.7644 C.ar    
  35 N35          -16.6064    -0.2697    -6.7943 N.ar    
  36 C36          -15.3200    -0.0498    -6.6206 C.ar    
  37 N37          -14.7412    -0.1274    -5.4364 N.ar    
  38 C38          -15.4392    -0.4362    -4.3480 C.ar    
  39 C39          -16.8165    -0.6800    -4.4826 C.ar    
  40 O40          -20.8434    -1.7242    -6.2818 O.3     
  41 C41          -19.7292    -0.8908    -6.6688 C.3     
  42 C42          -20.3377     0.5154    -6.8655 C.3     
  43 C43          -21.8283     0.2408    -7.1655 C.3     
  44 C44          -21.9440    -1.2988    -7.1146 C.3     
  45 C45          -23.2770    -1.7123    -6.4877 C.3     
  46 O46          -23.3824    -3.1374    -6.4891 O.3     
  47 O47          -22.1754     0.7264    -8.4639 O.3     
  48 O48          -19.7187     1.1789    -7.9694 O.3     
  49 N49           -0.3389     4.3168     0.3104 N.pl3   
  50 H50            2.4245     0.2501    -0.2502 H       
  51 H51            0.0912     1.1102    -4.5141 H       
  52 H52           -0.9982     1.7000    -2.3900 H       
  53 H53           -5.5101     1.8694     0.9049 H       
  54 H54           -5.5833     2.4828    -0.7679 H       
  55 H55           -2.5176    -0.4162    -1.1447 H       
  56 H56           -2.0918    -0.6069     0.5763 H       
  57 H57           -4.4113    -1.4714    -0.0573 H       
  58 H58           -4.3912    -0.2730     1.2595 H       
  59 H59           -6.4628    -1.1233    -0.8692 H       
  60 H60           -6.9066     0.0457     0.3975 H       
  61 H61           -7.3084     1.7721    -1.3366 H       
  62 H62           -6.8646     0.6030    -2.6033 H       
  63 H63           -8.7274    -0.8722    -1.8944 H       
  64 H64           -9.1712     0.2969    -0.6277 H       
  65 H65          -11.2209     2.0387    -4.2030 H       
  66 H66          -13.5857     1.4022    -4.4452 H       
  67 H67          -13.0725    -1.6269    -1.4710 H       
  68 H68          -10.7055    -0.9950    -1.2380 H       
  69 H69          -15.3242    -0.8215    -2.3383 H       
  70 H70          -19.8857    -1.3712    -3.8487 H       
  71 H71          -14.7155     0.2039    -7.4789 H       
  72 H72          -19.2930    -1.2493    -7.6012 H       
  73 H73          -20.2338     1.1071    -5.9560 H       
  74 H74          -22.4614     0.6968    -6.4043 H       
  75 H75          -21.8475    -1.7199    -8.1153 H       
  76 H76          -23.3258    -1.3453    -5.4625 H       
  77 H77          -24.0977    -1.2867    -7.0653 H       
  78 H78          -24.2047    -3.4714    -6.1053 H       
  79 H79          -23.1006     0.5801    -8.7041 H       
  80 H80          -20.0630     2.0666    -8.1381 H       
  81 H81            0.5635     3.9718     0.3969 H       
  82 H82           -0.4934     5.2744     0.3029 H       
@<TRIPOS>BOND
   1    1    2 2
   2    1    3 1
   3    1   17 1
   4    3    4 ar
   5    3    8 ar
   6    4    5 ar
   7    4   50 1
   8    5    6 ar
   9    5   10 1
  10    6    7 ar
  11    6    9 1
  12    7    8 ar
  13    7   51 1
  14    8   52 1
  15   11   12 1
  16   11   16 1
  17   11   53 1
  18   11   54 1
  19   12   13 2
  20   12   19 1
  21   13   14 1
  22   13   17 1
  23   14   15 1
  24   14   55 1
  25   14   56 1
  26   15   16 1
  27   15   57 1
  28   15   58 1
  29   16   20 1
  30   17   18 2
  31   18   19 1
  32   18   49 1
  33   20   21 1
  34   20   59 1
  35   20   60 1
  36   21   22 1
  37   21   61 1
  38   21   62 1
  39   22   23 1
  40   22   63 1
  41   22   64 1
  42   23   24 1
  43   24   25 ar
  44   24   29 ar
  45   25   26 ar
  46   25   65 1
  47   26   27 ar
  48   26   66 1
  49   27   28 ar
  50   27   30 1
  51   28   29 ar
  52   28   67 1
  53   29   68 1
  54   30   38 1
  55   30   69 1
  56   31   32 2
  57   31   39 1
  58   32   33 1
  59   32   70 1
  60   33   34 1
  61   33   41 1
  62   34   35 ar
  63   34   39 ar
  64   35   36 ar
  65   36   37 ar
  66   36   71 1
  67   37   38 ar
  68   38   39 ar
  69   40   41 1
  70   40   44 1
  71   41   42 1
  72   41   72 1
  73   42   43 1
  74   42   48 1
  75   42   73 1
  76   43   44 1
  77   43   47 1
  78   43   74 1
  79   44   45 1
  80   44   75 1
  81   45   46 1
  82   45   76 1
  83   45   77 1
  84   46   78 1
  85   47   79 1
  86   48   80 1
  87   49   81 1
  88   49   82 1

#	End of record

