#	Name: ASD05170023
#	Creating user name:	WinNT
#	Creation time:	15. 06. 2019 20:57

#	Modifying user name:	WinNT
#	Modification time:	15. 06. 2019 20:57

#	Program:	/corina/corina34_cracker 3.40 0067  02.08.2006

@<TRIPOS>MOLECULE
ASD05170023
  45   48    0    0    0
SMALL
NO_CHARGES


@<TRIPOS>ATOM
   1 F1            -0.1315     0.2921    -0.0696 F       
   2 C2            -0.2573     1.6839    -0.1350 C.3     
   3 F3             1.0145     2.2660    -0.1663 F       
   4 O4            -0.9744     2.0423    -1.3179 O.3     
   5 C5            -0.4305     1.6682    -2.5069 C.ar    
   6 C6             0.7650     0.9663    -2.5315 C.ar    
   7 C7             1.3193     0.5853    -3.7388 C.ar    
   8 C8             0.6795     0.9052    -4.9276 C.ar    
   9 N9             1.2411     0.5192    -6.1519 N.pl3   
  10 C10            2.5042    -0.2224    -6.1770 C.3     
  11 C11            2.8876    -0.5134    -7.6050 C.2     
  12 C12            3.7536     0.2513    -8.3982 C.2     
  13 C13            3.7940    -0.3932    -9.6019 C.2     
  14 C14            4.5212    -0.0976   -10.8455 C.2     
  15 O15            5.3907     0.7515   -10.8940 O.2     
  16 N16            4.1697    -0.8236   -11.9345 N.am    
  17 C17            2.9896    -1.6816   -11.9296 C.3     
  18 C18            2.8198    -2.4368   -10.6122 C.3     
  19 N19            2.9820    -1.5007    -9.4930 N.pl3   
  20 N20            2.4736    -1.5311    -8.3236 N.2     
  21 C21            4.9529    -0.7486   -13.0854 C.ar    
  22 C22            6.0075    -1.6373   -13.2591 C.ar    
  23 C23            6.7774    -1.5531   -14.4060 C.ar    
  24 C24            6.4637    -0.5772   -15.3445 C.ar    
  25 F25            7.1898    -0.4612   -16.4779 F       
  26 C26            5.3997     0.2736   -15.1054 C.ar    
  27 N27            4.6815     0.1647   -14.0042 N.ar    
  28 C28           -0.5198     1.6089    -4.9032 C.ar    
  29 F29           -1.1442     1.9211    -6.0598 F       
  30 C30           -1.0751     1.9843    -3.6941 C.ar    
  31 H31           -0.7990     2.0413     0.7407 H       
  32 H32            1.2636     0.7173    -1.6064 H       
  33 H33            2.2507     0.0389    -3.7569 H       
  34 H34            0.7935     0.7430    -6.9828 H       
  35 H35            3.2852     0.3741    -5.7055 H       
  36 H36            2.3858    -1.1603    -5.6343 H       
  37 H37            4.2755     1.1545    -8.1185 H       
  38 H38            2.1059    -1.0666   -12.0997 H       
  39 H39            3.0755    -2.4039   -12.7414 H       
  40 H40            1.8255    -2.8819   -10.5734 H       
  41 H41            3.5734    -3.2213   -10.5426 H       
  42 H42            6.2234    -2.3834   -12.5088 H       
  43 H43            7.6033    -2.2299   -14.5678 H       
  44 H44            5.1515     1.0341   -15.8310 H       
  45 H45           -2.0083     2.5275    -3.6739 H       
@<TRIPOS>BOND
   1    1    2 1
   2    2    3 1
   3    2    4 1
   4    2   31 1
   5    4    5 1
   6    5   30 ar
   7    5    6 ar
   8    6    7 ar
   9    6   32 1
  10    7    8 ar
  11    7   33 1
  12    8    9 1
  13    8   28 ar
  14    9   10 1
  15    9   34 1
  16   10   11 1
  17   10   35 1
  18   10   36 1
  19   11   20 2
  20   11   12 1
  21   12   13 2
  22   12   37 1
  23   13   19 1
  24   13   14 1
  25   14   15 2
  26   14   16 am
  27   16   17 1
  28   16   21 1
  29   17   18 1
  30   17   38 1
  31   17   39 1
  32   18   19 1
  33   18   40 1
  34   18   41 1
  35   19   20 1
  36   21   27 ar
  37   21   22 ar
  38   22   23 ar
  39   22   42 1
  40   23   24 ar
  41   23   43 1
  42   24   25 1
  43   24   26 ar
  44   26   27 ar
  45   26   44 1
  46   28   29 1
  47   28   30 ar
  48   30   45 1

#	End of record

