#	Name: ASD01120099
#	Creating user name:	WinNT
#	Creation time:	15. 06. 2019 18:59

#	Modifying user name:	WinNT
#	Modification time:	15. 06. 2019 18:59

#	Program:	/corina/corina34_cracker 3.40 0067  02.08.2006

@<TRIPOS>MOLECULE
ASD01120099
  68   71    0    0    0
SMALL
NO_CHARGES


@<TRIPOS>ATOM
   1 C1            -0.0169     1.3976     0.0097 C.ar    
   2 C2             0.0021    -0.0041     0.0020 C.ar    
   3 C3            -1.1724    -0.7236     0.0098 C.ar    
   4 C4            -2.3970    -0.0450     0.0256 C.ar    
   5 C5            -2.4083     1.3718     0.0333 C.ar    
   6 C6            -1.2003     2.0795     0.0304 C.ar    
   7 N7            -3.5691    -0.6992     0.0333 N.ar    
   8 C8            -4.7007    -0.0361     0.0477 C.ar    
   9 N9            -4.7600     1.2862     0.0549 N.ar    
  10 C10           -3.6614     2.0295     0.0489 C.ar    
  11 N11           -3.7382     3.4069     0.0566 N.pl3   
  12 O12            1.1558     2.0860     0.0022 O.3     
  13 O13            1.1917    -0.6598    -0.0138 O.3     
  14 C14            1.0707     3.5124     0.0107 C.3     
  15 C15            2.4803     4.1074     0.0004 C.3     
  16 C16            1.1451    -2.0881    -0.0209 C.3     
  17 C17            2.5702    -2.6447    -0.0386 C.3     
  18 C18           -5.0457     4.0675     0.0717 C.3     
  19 C19           -4.8503     5.5850     0.0776 C.3     
  20 N20           -6.1577     6.2457     0.0927 N.pl3   
  21 C21           -6.2345     7.6231     0.1004 C.ar    
  22 C22           -7.4876     8.2808     0.1150 C.ar    
  23 C23           -7.4990     9.6976     0.1229 C.ar    
  24 N24           -6.3269    10.3518     0.1162 N.ar    
  25 C25           -5.1953     9.6886     0.1026 C.ar    
  26 N26           -5.1359     8.3663     0.1000 N.ar    
  27 C27           -8.6954     7.5729     0.1213 C.ar    
  28 C28           -9.8790     8.2547     0.1350 C.ar    
  29 C29           -9.8981     9.6563     0.1429 C.ar    
  30 C30           -8.7237    10.3760     0.1370 C.ar    
  31 O31          -11.0878    10.3120     0.1566 O.3     
  32 C32          -11.0414    11.7402     0.1641 C.3     
  33 C33          -12.4665    12.2967     0.1792 C.3     
  34 O34          -11.0516     7.5662     0.1406 O.3     
  35 C35          -10.9665     6.1398     0.1315 C.3     
  36 C36          -12.3760     5.5446     0.1396 C.3     
  37 H37           -1.1489    -1.8033     0.0034 H       
  38 H38           -1.2042     3.1595     0.0362 H       
  39 H39           -5.6254    -0.5940     0.0535 H       
  40 H40           -2.9265     3.9379     0.0520 H       
  41 H41            0.5277     3.8493    -0.8723 H       
  42 H42            0.5447     3.8397     0.9075 H       
  43 H43            3.0233     3.7706     0.8835 H       
  44 H44            3.0063     3.7801    -0.8964 H       
  45 H45            2.4154     5.1955     0.0069 H       
  46 H46            0.6289    -2.4393     0.8725 H       
  47 H47            0.6106    -2.4297    -0.9073 H       
  48 H48            2.5347    -3.7341    -0.0441 H       
  49 H49            3.0864    -2.2935    -0.9321 H       
  50 H50            3.1047    -2.3030     0.8478 H       
  51 H51           -5.6096     3.7773    -0.8148 H       
  52 H52           -5.5937     3.7683     0.9651 H       
  53 H53           -4.2863     5.8752     0.9641 H       
  54 H54           -4.3022     5.8843    -0.8158 H       
  55 H55           -6.9695     5.7146     0.0973 H       
  56 H56           -4.2706    10.2465     0.0971 H       
  57 H57           -8.6915     6.4929     0.1149 H       
  58 H58           -8.7474    11.4557     0.1437 H       
  59 H59          -10.5086    12.0818     1.0515 H       
  60 H60          -10.5236    12.0916    -0.7284 H       
  61 H61          -12.9994    11.9552    -0.7083 H       
  62 H62          -12.9844    11.9453     1.0716 H       
  63 H63          -12.4311    13.3862     0.1849 H       
  64 H64          -10.4392     5.8130    -0.7648 H       
  65 H65          -10.4246     5.8025     1.0151 H       
  66 H66          -12.9032     5.8714     1.0359 H       
  67 H67          -12.9178     5.8819    -0.7440 H       
  68 H68          -12.3110     4.4566     0.1327 H       
@<TRIPOS>BOND
   1    1    2 ar
   2    1   12 1
   3    1    6 ar
   4    2    3 ar
   5    2   13 1
   6    3    4 ar
   7    3   37 1
   8    4    5 ar
   9    4    7 ar
  10    5    6 ar
  11    5   10 ar
  12    6   38 1
  13    7    8 ar
  14    8    9 ar
  15    8   39 1
  16    9   10 ar
  17   10   11 1
  18   11   18 1
  19   11   40 1
  20   12   14 1
  21   13   16 1
  22   14   15 1
  23   14   41 1
  24   14   42 1
  25   15   43 1
  26   15   44 1
  27   15   45 1
  28   16   17 1
  29   16   46 1
  30   16   47 1
  31   17   48 1
  32   17   49 1
  33   17   50 1
  34   18   19 1
  35   18   51 1
  36   18   52 1
  37   19   20 1
  38   19   53 1
  39   19   54 1
  40   20   21 1
  41   20   55 1
  42   21   22 ar
  43   21   26 ar
  44   22   23 ar
  45   22   27 ar
  46   23   24 ar
  47   23   30 ar
  48   24   25 ar
  49   25   26 ar
  50   25   56 1
  51   27   28 ar
  52   27   57 1
  53   28   29 ar
  54   28   34 1
  55   29   30 ar
  56   29   31 1
  57   30   58 1
  58   31   32 1
  59   32   33 1
  60   32   59 1
  61   32   60 1
  62   33   61 1
  63   33   62 1
  64   33   63 1
  65   34   35 1
  66   35   36 1
  67   35   64 1
  68   35   65 1
  69   36   66 1
  70   36   67 1
  71   36   68 1

#	End of record

