#	Name: ASD01810748
#	Creating user name:	WinNT
#	Creation time:	15. 06. 2019 19:25

#	Modifying user name:	WinNT
#	Modification time:	15. 06. 2019 19:25

#	Program:	/corina/corina34_cracker 3.40 0067  02.08.2006

@<TRIPOS>MOLECULE
ASD01810748
  28   28    0    0    0
SMALL
NO_CHARGES


@<TRIPOS>ATOM
   1 C1            -0.1287     1.4674     0.0938 C.2     
   2 C2            -0.0515    -0.0071     0.0427 C.ar    
   3 C3             1.1845    -0.6385    -0.1214 C.ar    
   4 C4             1.2585    -2.0162    -0.1689 C.ar    
   5 C5             0.1137    -2.7800    -0.0552 C.ar    
   6 C6            -1.1288    -2.1621     0.1093 C.ar    
   7 C7            -1.2101    -0.7716     0.1639 C.ar    
   8 O8             0.8899     2.1291     0.0975 O.2     
   9 O9            -1.3288     2.0782     0.1307 O.3     
  10 C10            0.2045    -4.2833    -0.1092 C.3     
  11 C11            2.4392     0.1866    -0.2474 C.3     
  12 C12           -2.3518    -2.9803     0.2307 C.2     
  13 N13           -2.9924    -3.4031    -0.8771 N.am    
  14 S14           -2.9561    -3.3919     1.7787 S.2     
  15 C15           -1.3286     3.5294     0.1799 C.3     
  16 H16            2.2163    -2.4989    -0.2959 H       
  17 H17           -2.1673    -0.2889     0.2954 H       
  18 H18            0.4313    -4.6695     0.8845 H       
  19 H19           -0.7465    -4.6928    -0.4498 H       
  20 H20            0.9944    -4.5750    -0.8014 H       
  21 H21            2.7953     0.4603     0.7458 H       
  22 H22            3.2057    -0.3939    -0.7610 H       
  23 H23            2.2243     1.0900    -0.8181 H       
  24 H24           -2.6500    -3.1698    -1.7542 H       
  25 H25           -3.7959    -3.9406    -0.7974 H       
  26 H26           -0.8029     3.8625     1.0747 H       
  27 H27           -0.8268     3.9229    -0.7040 H       
  28 H28           -2.3562     3.8921     0.2061 H       
@<TRIPOS>BOND
   1    1    2 1
   2    1    8 2
   3    1    9 1
   4    2    3 ar
   5    2    7 ar
   6    3    4 ar
   7    3   11 1
   8    4    5 ar
   9    4   16 1
  10    5    6 ar
  11    5   10 1
  12    6    7 ar
  13    6   12 1
  14    7   17 1
  15    9   15 1
  16   10   18 1
  17   10   19 1
  18   10   20 1
  19   11   21 1
  20   11   22 1
  21   11   23 1
  22   12   13 am
  23   12   14 2
  24   13   24 1
  25   13   25 1
  26   15   26 1
  27   15   27 1
  28   15   28 1

#	End of record

