#	Name: ASD01810308
#	Creating user name:	WinNT
#	Creation time:	15. 06. 2019 19:24

#	Modifying user name:	WinNT
#	Modification time:	15. 06. 2019 19:24

#	Program:	/corina/corina34_cracker 3.40 0067  02.08.2006

@<TRIPOS>MOLECULE
ASD01810308
  47   50    0    0    0
SMALL
NO_CHARGES


@<TRIPOS>ATOM
   1 C1             1.1578     2.2525    -0.5143 C.ar    
   2 C2             0.7807     0.9174    -0.4993 C.ar    
   3 C3             1.7228    -0.0789    -0.3475 C.ar    
   4 C4             3.0700     0.2530    -0.2074 C.ar    
   5 C5             3.4473     1.6060    -0.2232 C.ar    
   6 C6             2.4830     2.6021    -0.3774 C.ar    
   7 N7             4.0219    -0.7327    -0.0539 N.pl3   
   8 C8             5.3264    -0.4660     0.0856 C.2     
   9 C9             5.8174     0.8243     0.0861 C.2     
  10 C10            4.8753     1.9436    -0.0740 C.2     
  11 O11            5.2585     3.1002    -0.0806 O.2     
  12 C12            3.5871    -2.1316    -0.0427 C.3     
  13 C13            3.4445    -2.6248    -1.4595 C.ar    
  14 C14            4.5277    -2.5710    -2.3214 C.ar    
  15 C15            4.4010    -3.0225    -3.6222 C.ar    
  16 C16            3.1820    -3.5314    -4.0638 C.ar    
  17 C17            2.0963    -3.5826    -3.1914 C.ar    
  18 C18            2.2343    -3.1348    -1.8933 C.ar    
  19 C19            3.0396    -4.0170    -5.4586 C.ar    
  20 C20            7.2569     1.0759     0.2430 C.2     
  21 O21            7.7242     2.3403     0.2418 O.3     
  22 O22            8.0262     0.1437     0.3738 O.2     
  23 F23            1.3406    -1.3746    -0.3343 F       
  24 C24            4.1186    -3.9690    -6.3364 C.ar    
  25 N25            3.9962    -4.3989    -7.5764 N.ar    
  26 C26            2.8560    -4.8891    -8.0343 C.ar    
  27 C27            1.7342    -4.9692    -7.2173 C.ar    
  28 C28            1.8202    -4.5350    -5.9086 C.ar    
  29 O29            2.7804    -5.3189    -9.3188 O.3     
  30 C30            3.9655    -5.2108   -10.1099 C.3     
  31 F31            5.7088    -2.0765    -1.8908 F       
  32 H32            0.4093     3.0210    -0.6385 H       
  33 H33           -0.2614     0.6554    -0.6071 H       
  34 H34            2.7741     3.6421    -0.3898 H       
  35 H35            6.0176    -1.2876     0.2020 H       
  36 H36            4.3268    -2.7378     0.4803 H       
  37 H37            2.6270    -2.2096     0.4675 H       
  38 H38            5.2453    -2.9802    -4.2943 H       
  39 H39            1.1491    -3.9761    -3.5296 H       
  40 H40            1.3930    -3.1745    -1.2173 H       
  41 H41            8.6784     2.4558     0.3481 H       
  42 H42            5.0657    -3.5752    -5.9982 H       
  43 H43            0.8074    -5.3706    -7.5998 H       
  44 H44            0.9646    -4.5859    -5.2515 H       
  45 H45            3.7682    -5.5884   -11.1132 H       
  46 H46            4.2694    -4.1656   -10.1682 H       
  47 H47            4.7628    -5.7960    -9.6517 H       
@<TRIPOS>BOND
   1    1    2 ar
   2    1    6 ar
   3    1   32 1
   4    2    3 ar
   5    2   33 1
   6    3    4 ar
   7    3   23 1
   8    4    5 ar
   9    4    7 1
  10    5    6 ar
  11    5   10 1
  12    6   34 1
  13    7    8 1
  14    7   12 1
  15    8    9 2
  16    8   35 1
  17    9   10 1
  18    9   20 1
  19   10   11 2
  20   12   13 1
  21   12   36 1
  22   12   37 1
  23   13   14 ar
  24   13   18 ar
  25   14   15 ar
  26   14   31 1
  27   15   16 ar
  28   15   38 1
  29   16   17 ar
  30   16   19 1
  31   17   18 ar
  32   17   39 1
  33   18   40 1
  34   19   24 ar
  35   19   28 ar
  36   20   21 1
  37   20   22 2
  38   21   41 1
  39   24   25 ar
  40   24   42 1
  41   25   26 ar
  42   26   27 ar
  43   26   29 1
  44   27   28 ar
  45   27   43 1
  46   28   44 1
  47   29   30 1
  48   30   45 1
  49   30   46 1
  50   30   47 1

#	End of record

