#	Name: ASD05380280
#	Creating user name:	WinNT
#	Creation time:	15. 06. 2019 20:59

#	Modifying user name:	WinNT
#	Modification time:	15. 06. 2019 20:59

#	Program:	/corina/corina34_cracker 3.40 0067  02.08.2006

@<TRIPOS>MOLECULE
ASD05380280
  61   65    0    0    0
SMALL
NO_CHARGES


@<TRIPOS>ATOM
   1 C1             1.5328     1.9429     0.5314 C.ar    
   2 C2             1.6458     0.8770     1.4139 C.ar    
   3 C3             2.7661     0.0762     1.4133 C.ar    
   4 C4             3.8024     0.3376     0.5151 C.ar    
   5 C5             3.6840     1.4231    -0.3816 C.ar    
   6 C6             2.5421     2.2210    -0.3646 C.ar    
   7 N7             4.9235    -0.4253     0.4807 N.2     
   8 C8             5.8873    -0.1818    -0.3545 C.2     
   9 N9             5.8587     0.8407    -1.2516 N.am    
  10 C10            4.7926     1.6722    -1.3145 C.2     
  11 C11            7.0993    -1.0769    -0.3286 C.3     
  12 C12            6.7760     0.8736    -3.4868 C.ar    
  13 C13            6.9422     1.0347    -2.1177 C.ar    
  14 C14            9.0824     1.4187    -3.8287 C.ar    
  15 C15            9.2512     1.5799    -2.4657 C.ar    
  16 C16            8.1848     1.3889    -1.6090 C.ar    
  17 N17            6.8987    -2.1423     0.6567 N.2     
  18 O18            4.7534     2.5908    -2.1122 O.2     
  19 C19            7.3066    -1.6949    -1.7129 C.3     
  20 C20            7.8463     1.0660    -4.3383 C.ar    
  21 C21            2.4115     3.3796    -1.3195 C.3     
  22 C22            7.6489    -2.1956     1.7201 C.2     
  23 C23            7.3958    -3.2255     2.7542 C.ar    
  24 C24            6.4293    -4.2084     2.5418 C.ar    
  25 C25            8.1271    -3.2196     3.9420 C.ar    
  26 C26            7.8867    -4.1816     4.9015 C.ar    
  27 C27            6.9229    -5.1508     4.6872 C.ar    
  28 C28            6.1980    -5.1650     3.5089 C.ar    
  29 C29            8.7553    -1.2264     1.8953 C.ar    
  30 C30            8.4794     0.1342     2.0308 C.ar    
  31 C31            9.5143     1.0321     2.1941 C.ar    
  32 C32           10.8233     0.5854     2.2232 C.ar    
  33 C33           11.1033    -0.7629     2.0893 C.ar    
  34 C34           10.0768    -1.6712     1.9312 C.ar    
  35 C35            8.5047    -2.5498    -1.6942 C.1     
  36 C36            9.4603    -3.2316    -1.6793 C.1     
  37 H37            0.6443     2.5567     0.5443 H       
  38 H38            0.8453     0.6736     2.1097 H       
  39 H39            2.8429    -0.7499     2.1047 H       
  40 H40            7.9777    -0.4915    -0.0570 H       
  41 H41            5.8119     0.5938    -3.8851 H       
  42 H42            9.9177     1.5689    -4.4966 H       
  43 H43           10.2179     1.8550    -2.0706 H       
  44 H44            8.3172     1.5153    -0.5446 H       
  45 H45            6.4359    -2.2953    -1.9767 H       
  46 H46            7.4376    -0.9018    -2.4490 H       
  47 H47            7.7176     0.9408    -5.4033 H       
  48 H48            2.0542     3.0173    -2.2835 H       
  49 H49            1.7023     4.1033    -0.9178 H       
  50 H50            3.3834     3.8560    -1.4479 H       
  51 H51            5.8628    -4.2205     1.6223 H       
  52 H52            8.8801    -2.4640     4.1101 H       
  53 H53            8.4522    -4.1781     5.8216 H       
  54 H54            6.7386    -5.9019     5.4410 H       
  55 H55            5.4468    -5.9239     3.3474 H       
  56 H56            7.4579     0.4841     2.0075 H       
  57 H57            9.3019     2.0858     2.2992 H       
  58 H58           11.6300     1.2921     2.3506 H       
  59 H59           12.1273    -1.1055     2.1125 H       
  60 H60           10.2966    -2.7234     1.8267 H       
  61 H61           10.3150    -3.8414    -1.6659 H       
@<TRIPOS>BOND
   1    1    2 ar
   2    1    6 ar
   3    1   37 1
   4    2    3 ar
   5    2   38 1
   6    3    4 ar
   7    3   39 1
   8    4    5 ar
   9    4    7 1
  10    5    6 ar
  11    5   10 1
  12    6   21 1
  13    7    8 2
  14    8    9 1
  15    8   11 1
  16    9   10 am
  17    9   13 1
  18   10   18 2
  19   11   17 1
  20   11   19 1
  21   11   40 1
  22   12   13 ar
  23   12   20 ar
  24   12   41 1
  25   13   16 ar
  26   14   15 ar
  27   14   20 ar
  28   14   42 1
  29   15   16 ar
  30   15   43 1
  31   16   44 1
  32   17   22 2
  33   19   35 1
  34   19   45 1
  35   19   46 1
  36   20   47 1
  37   21   48 1
  38   21   49 1
  39   21   50 1
  40   22   23 1
  41   22   29 1
  42   23   24 ar
  43   23   25 ar
  44   24   28 ar
  45   24   51 1
  46   25   26 ar
  47   25   52 1
  48   26   27 ar
  49   26   53 1
  50   27   28 ar
  51   27   54 1
  52   28   55 1
  53   29   30 ar
  54   29   34 ar
  55   30   31 ar
  56   30   56 1
  57   31   32 ar
  58   31   57 1
  59   32   33 ar
  60   32   58 1
  61   33   34 ar
  62   33   59 1
  63   34   60 1
  64   35   36 3
  65   36   61 1

#	End of record

