#	Name: ASD01900515
#	Creating user name:	WinNT
#	Creation time:	15. 06. 2019 19:52

#	Modifying user name:	WinNT
#	Modification time:	15. 06. 2019 19:52

#	Program:	/corina/corina34_cracker 3.40 0067  02.08.2006

@<TRIPOS>MOLECULE
ASD01900515
  29   31    0    0    0
SMALL
NO_CHARGES


@<TRIPOS>ATOM
   1 C1             0.3940     3.9784     0.6065 C.ar    
   2 C2             0.8285     5.0119     1.4495 C.ar    
   3 C3             2.1922     5.2739     1.5498 C.ar    
   4 C4             3.0645     4.4983     0.8087 C.ar    
   5 C5             2.5635     3.4922    -0.0049 C.ar    
   6 N6             1.2719     3.2608    -0.0853 N.ar    
   7 O7            -0.2655     5.5592     2.0147 O.3     
   8 N8            -1.4203     4.8910     1.5480 N.2     
   9 C9            -1.0751     3.9538     0.7101 C.2     
  10 N10           -1.9330     3.0872     0.0450 N.pl3   
  11 C11           -3.3163     3.2522     0.1552 C.ar    
  12 C12           -3.8507     4.5151     0.3722 C.ar    
  13 C13           -5.2229     4.6746     0.4803 C.ar    
  14 C14           -6.0597     3.5724     0.3715 C.ar    
  15 C15           -5.5263     2.3161     0.1556 C.ar    
  16 C16           -4.1591     2.1535     0.0419 C.ar    
  17 O17           -5.7492     5.9093     0.6932 O.3     
  18 C18           -7.1718     5.9996     0.7943 C.3     
  19 F19           -7.6141     5.2131     1.8634 F       
  20 F20           -7.5402     7.3316     1.0116 F       
  21 F21           -7.7536     5.5426    -0.3930 F       
  22 H22            2.5592     6.0628     2.1896 H       
  23 H23            4.1287     4.6746     0.8625 H       
  24 H24            3.2472     2.8879    -0.5826 H       
  25 H25           -1.5719     2.3675    -0.4958 H       
  26 H26           -3.1981     5.3715     0.4569 H       
  27 H27           -7.1292     3.6968     0.4562 H       
  28 H28           -6.1797     1.4603     0.0717 H       
  29 H29           -3.7450     1.1712    -0.1314 H       
@<TRIPOS>BOND
   1    1    2 ar
   2    1    6 ar
   3    1    9 1
   4    2    3 ar
   5    2    7 1
   6    3    4 ar
   7    3   22 1
   8    4    5 ar
   9    4   23 1
  10    5    6 ar
  11    5   24 1
  12    7    8 1
  13    8    9 2
  14    9   10 1
  15   10   11 1
  16   10   25 1
  17   11   12 ar
  18   11   16 ar
  19   12   13 ar
  20   12   26 1
  21   13   14 ar
  22   13   17 1
  23   14   15 ar
  24   14   27 1
  25   15   16 ar
  26   15   28 1
  27   16   29 1
  28   17   18 1
  29   18   19 1
  30   18   20 1
  31   18   21 1

#	End of record

