#	Name: ASD05720074
#	Creating user name:	WinNT
#	Creation time:	15. 06. 2019 21:01

#	Modifying user name:	WinNT
#	Modification time:	15. 06. 2019 21:01

#	Program:	/corina/corina34_cracker 3.40 0067  02.08.2006

@<TRIPOS>MOLECULE
ASD05720074
  56   56    0    0    0
SMALL
NO_CHARGES


@<TRIPOS>ATOM
   1 N1            -0.1071     1.6176     0.2933 N.am    
   2 C2            -0.2386     0.1615     0.4391 C.3     
   3 C3             0.7495    -0.3183     1.5069 C.3     
   4 C4             2.1589     0.1519     1.1402 C.3     
   5 C5             2.1944     1.6814     1.1017 C.3     
   6 C6             1.2227     2.1839     0.0293 C.3     
   7 C7            -1.1866     2.4181     0.3942 C.2     
   8 O8            -2.2818     1.9370     0.6077 O.2     
   9 O9            -1.0516     3.7507     0.2584 O.3     
  10 C10            3.1537    -0.3549     2.1863 C.3     
  11 C11            3.1925    -1.8841     2.1546 C.3     
  12 O12            3.4958    -2.3255     0.8298 O.3     
  13 N13            4.4872     0.1736     1.8886 N.am    
  14 C14            5.3958     0.3050     2.8753 C.2     
  15 O15            5.1089    -0.0150     4.0119 O.2     
  16 O16            6.6213     0.7907     2.6017 O.3     
  17 C17            7.5485     0.9047     3.7133 C.3     
  18 C18            7.7817    -0.4775     4.3266 C.3     
  19 C19            8.8785     1.4711     3.2120 C.3     
  20 C20            6.9625     1.8404     4.7725 C.3     
  21 C21           -2.2570     4.5512     0.3792 C.3     
  22 C22           -2.8733     4.3394     1.7634 C.3     
  23 C23           -1.9078     6.0296     0.1972 C.3     
  24 C24           -3.2600     4.1280    -0.6959 C.3     
  25 H25           -1.2554    -0.0848     0.7451 H       
  26 H26           -0.0133    -0.3227    -0.5111 H       
  27 H27            0.4683     0.0958     2.4752 H       
  28 H28            0.7307    -1.4070     1.5570 H       
  29 H29            2.4299    -0.2424     0.1607 H       
  30 H30            1.8996     2.0767     2.0737 H       
  31 H31            3.2040     2.0160     0.8634 H       
  32 H32            1.5671     1.8646    -0.9544 H       
  33 H33            1.1701     3.2720     0.0648 H       
  34 H34            2.8426    -0.0198     3.1758 H       
  35 H35            3.9592    -2.2425     2.8415 H       
  36 H36            2.2219    -2.2785     2.4557 H       
  37 H37            3.5367    -3.2870     0.7352 H       
  38 H38            4.7162     0.4291     0.9813 H       
  39 H39            8.1992    -1.1441     3.5720 H       
  40 H40            8.4778    -0.3920     5.1610 H       
  41 H41            6.8342    -0.8810     4.6837 H       
  42 H42            8.7124     2.4558     2.7750 H       
  43 H43            9.5745     1.5566     4.0464 H       
  44 H44            9.2960     0.8045     2.4574 H       
  45 H45            6.0150     1.4368     5.1296 H       
  46 H46            7.6585     1.9259     5.6069 H       
  47 H47            6.7964     2.8250     4.3355 H       
  48 H48           -2.1588     4.6408     2.5293 H       
  49 H49           -3.7782     4.9402     1.8540 H       
  50 H50           -3.1221     3.2861     1.8930 H       
  51 H51           -1.4687     6.1806    -0.7890 H       
  52 H52           -2.8127     6.6305     0.2878 H       
  53 H53           -1.1932     6.3311     0.9631 H       
  54 H54           -3.5088     3.0747    -0.5663 H       
  55 H55           -4.1649     4.7289    -0.6053 H       
  56 H56           -2.8209     4.2789    -1.6821 H       
@<TRIPOS>BOND
   1    1    2 1
   2    1    6 1
   3    1    7 am
   4    2    3 1
   5    2   25 1
   6    2   26 1
   7    3    4 1
   8    3   27 1
   9    3   28 1
  10    4    5 1
  11    4   10 1
  12    4   29 1
  13    5    6 1
  14    5   30 1
  15    5   31 1
  16    6   32 1
  17    6   33 1
  18    7    8 2
  19    7    9 1
  20    9   21 1
  21   10   11 1
  22   10   13 1
  23   10   34 1
  24   11   12 1
  25   11   35 1
  26   11   36 1
  27   12   37 1
  28   13   14 am
  29   13   38 1
  30   14   15 2
  31   14   16 1
  32   16   17 1
  33   17   18 1
  34   17   20 1
  35   17   19 1
  36   18   39 1
  37   18   40 1
  38   18   41 1
  39   19   42 1
  40   19   43 1
  41   19   44 1
  42   20   45 1
  43   20   46 1
  44   20   47 1
  45   21   22 1
  46   21   24 1
  47   21   23 1
  48   22   48 1
  49   22   49 1
  50   22   50 1
  51   23   51 1
  52   23   52 1
  53   23   53 1
  54   24   54 1
  55   24   55 1
  56   24   56 1

#	End of record

