#	Name: ASD03930125
#	Creating user name:	WinNT
#	Creation time:	15. 06. 2019 20:47

#	Modifying user name:	WinNT
#	Modification time:	15. 06. 2019 20:47

#	Program:	/corina/corina34_cracker 3.40 0067  02.08.2006

@<TRIPOS>MOLECULE
ASD03930125
  27   29    0    0    0
SMALL
NO_CHARGES


@<TRIPOS>ATOM
   1 N1            -0.0158     1.3156     0.0093 N.ar    
   2 C2             0.0021    -0.0041     0.0020 C.ar    
   3 C3             1.1794    -0.7302    -0.0075 C.ar    
   4 C4             2.3915    -0.0456    -0.0245 C.ar    
   5 C5             1.1169     2.0140     0.0022 C.ar    
   6 C6             2.3182     1.3367    -0.0325 C.ar    
   7 O7             1.1232     3.3411     0.0556 O.3     
   8 C8             1.2831     4.0174     1.3273 C.3     
   9 C9             2.5727     3.2708     1.9123 C.3     
  10 N10            3.5659     3.2260     0.7997 N.am    
  11 C11            3.5245     2.2225    -0.1209 C.2     
  12 O12            4.3982     2.0583    -0.9504 O.2     
  13 C13            3.1459     4.2785     2.9403 C.3     
  14 C14            4.6195     4.4755     2.5044 C.3     
  15 C15            4.5180     4.3151     0.9626 C.3     
  16 H16           -0.9374    -0.5368     0.0040 H       
  17 H17            1.1587    -1.8100    -0.0016 H       
  18 H18            3.3384    -0.5651    -0.0307 H       
  19 H19            1.4761     5.0807     1.1848 H       
  20 H20            0.4148     3.8605     1.9672 H       
  21 H21            2.3499     2.2887     2.3292 H       
  22 H22            2.6043     5.2231     2.8905 H       
  23 H23            3.0986     3.8638     3.9472 H       
  24 H24            4.9752     5.4709     2.7705 H       
  25 H25            5.2599     3.7059     2.9353 H       
  26 H26            5.4859     4.0459     0.5397 H       
  27 H27            4.1384     5.2289     0.5053 H       
@<TRIPOS>BOND
   1    1    2 ar
   2    1    5 ar
   3    2    3 ar
   4    2   16 1
   5    3    4 ar
   6    3   17 1
   7    4    6 ar
   8    4   18 1
   9    5    7 1
  10    5    6 ar
  11    6   11 1
  12    7    8 1
  13    8    9 1
  14    8   19 1
  15    8   20 1
  16    9   10 1
  17    9   13 1
  18    9   21 1
  19   10   11 am
  20   10   15 1
  21   11   12 2
  22   13   14 1
  23   13   22 1
  24   13   23 1
  25   14   15 1
  26   14   24 1
  27   14   25 1
  28   15   26 1
  29   15   27 1

#	End of record

