#	Name: ASD01208606
#	Creating user name:	WinNT
#	Creation time:	15. 06. 2019 19:10

#	Modifying user name:	WinNT
#	Modification time:	15. 06. 2019 19:10

#	Program:	/corina/corina34_cracker 3.40 0067  02.08.2006

@<TRIPOS>MOLECULE
ASD01208606
  79   81    0    0    0
SMALL
NO_CHARGES


@<TRIPOS>ATOM
   1 O1             1.3905     0.8012     1.6401 O.3     
   2 C2             1.1114    -0.4602     1.2466 C.2     
   3 N3             2.0803    -1.0298     0.5910 N.2     
   4 C4             3.2066    -0.0799     0.5058 C.3     
   5 C5             2.8205     0.9758     1.5701 C.3     
   6 C6             3.4782     0.6647     2.9160 C.3     
   7 C7             4.5264    -0.7637     0.8684 C.3     
   8 N8            -1.2264    -0.5823     2.2186 N.pl3   
   9 C9            -0.1668    -1.1272     1.5326 C.2     
  10 C10           -0.5125    -2.4082     1.1602 C.2     
  11 C11           -1.8057    -2.6460     1.6284 C.2     
  12 C12           -2.2290    -1.5087     2.2783 C.2     
  13 C13           -3.5428    -1.3219     2.9295 C.ar    
  14 C14           -3.8471    -0.1132     3.5571 C.ar    
  15 C15           -5.0793     0.0578     4.1656 C.ar    
  16 C16           -6.0106    -0.9708     4.1522 C.ar    
  17 C17           -5.7122    -2.1740     3.5294 C.ar    
  18 C18           -4.4843    -2.3514     2.9134 C.ar    
  19 O19           -6.6279    -3.1782     3.5191 O.3     
  20 Si20          -7.7262    -3.0622     2.3190 Si      
  21 C21          -10.0470    -1.6729     1.6901 C.3     
  22 C22           -8.8550    -1.6171     2.6477 C.3     
  23 C23           -9.3572    -1.6803     4.0915 C.3     
  24 C24           -5.8608    -3.9535     0.4649 C.3     
  25 C25           -6.8479    -2.8076     0.6959 C.3     
  26 C26           -7.8727    -2.7806    -0.4399 C.3     
  27 C27           -7.8226    -5.7983     1.8536 C.3     
  28 C28           -8.7303    -4.6296     2.2425 C.3     
  29 C29           -9.3546    -4.9027     3.6124 C.3     
  30 O30           -5.3767     1.2345     4.7770 O.3     
  31 C31           -4.5354     3.1253     6.0252 C.3     
  32 C32           -4.3540     2.2324     4.7960 C.3     
  33 C33           -4.4488     3.0840     3.5285 C.3     
  34 O34           -5.7644     3.8457     5.9134 O.3     
  35 C35           -6.0316     4.7141     7.0163 C.3     
  36 H36            3.2624     0.3695    -0.4857 H       
  37 H37            3.0759     1.9810     1.2347 H       
  38 H38            3.2442    -0.3594     3.2067 H       
  39 H39            4.5586     0.7794     2.8276 H       
  40 H40            3.1005     1.3524     3.6726 H       
  41 H41            4.7230    -1.5712     0.1632 H       
  42 H42            5.3369    -0.0363     0.8230 H       
  43 H43            4.4595    -1.1706     1.8774 H       
  44 H44           -1.2557     0.3091     2.6000 H       
  45 H45            0.1041    -3.1010     0.6069 H       
  46 H46           -2.3718    -3.5572     1.5033 H       
  47 H47           -3.1226     0.6877     3.5686 H       
  48 H48           -6.9704    -0.8345     4.6282 H       
  49 H49           -4.2543    -3.2869     2.4252 H       
  50 H50          -10.6261    -2.5759     1.8832 H       
  51 H51          -10.6776    -0.7971     1.8435 H       
  52 H52           -9.6865    -1.6854     0.6615 H       
  53 H53           -8.3084    -0.6867     2.4935 H       
  54 H54           -9.9853    -2.5619     4.2194 H       
  55 H55           -8.5062    -1.7389     4.7700 H       
  56 H56           -9.9380    -0.7851     4.3137 H       
  57 H57           -6.4114    -4.8729     0.2661 H       
  58 H58           -5.2250    -3.7189    -0.3889 H       
  59 H59           -5.2425    -4.0851     1.3529 H       
  60 H60           -6.3071    -1.8615     0.7199 H       
  61 H61           -8.4745    -1.8748    -0.3648 H       
  62 H62           -7.3535    -2.7934    -1.3982 H       
  63 H63           -8.5203    -3.6542    -0.3658 H       
  64 H64           -8.3165    -6.7388     2.0978 H       
  65 H65           -7.6210    -5.7611     0.7830 H       
  66 H66           -6.8838    -5.7276     2.4028 H       
  67 H67           -9.5196    -4.5196     1.4989 H       
  68 H68          -10.1244    -4.1583     3.8157 H       
  69 H69           -9.8007    -5.8972     3.6166 H       
  70 H70           -8.5835    -4.8471     4.3807 H       
  71 H71           -4.5567     2.5076     6.9230 H       
  72 H72           -3.7059     3.8296     6.0882 H       
  73 H73           -3.3771     1.7507     4.8379 H       
  74 H74           -5.4257     3.5657     3.4867 H       
  75 H75           -3.6687     3.8452     3.5430 H       
  76 H76           -4.3196     2.4479     2.6529 H       
  77 H77           -6.0839     4.1293     7.9347 H       
  78 H78           -5.2331     5.4513     7.1000 H       
  79 H79           -6.9815     5.2239     6.8556 H       
@<TRIPOS>BOND
   1    1    2 1
   2    1    5 1
   3    2    3 2
   4    2    9 1
   5    3    4 1
   6    4    5 1
   7    4    7 1
   8    4   36 1
   9    5    6 1
  10    5   37 1
  11    6   38 1
  12    6   39 1
  13    6   40 1
  14    7   41 1
  15    7   42 1
  16    7   43 1
  17    8    9 1
  18    8   12 1
  19    8   44 1
  20    9   10 2
  21   10   11 1
  22   10   45 1
  23   11   12 2
  24   11   46 1
  25   12   13 1
  26   13   14 ar
  27   13   18 ar
  28   14   15 ar
  29   14   47 1
  30   15   16 ar
  31   15   30 1
  32   16   17 ar
  33   16   48 1
  34   17   18 ar
  35   17   19 1
  36   18   49 1
  37   19   20 1
  38   20   22 1
  39   20   25 1
  40   20   28 1
  41   21   22 1
  42   21   50 1
  43   21   51 1
  44   21   52 1
  45   22   23 1
  46   22   53 1
  47   23   54 1
  48   23   55 1
  49   23   56 1
  50   24   25 1
  51   24   57 1
  52   24   58 1
  53   24   59 1
  54   25   26 1
  55   25   60 1
  56   26   61 1
  57   26   62 1
  58   26   63 1
  59   27   28 1
  60   27   64 1
  61   27   65 1
  62   27   66 1
  63   28   29 1
  64   28   67 1
  65   29   68 1
  66   29   69 1
  67   29   70 1
  68   30   32 1
  69   31   32 1
  70   31   34 1
  71   31   71 1
  72   31   72 1
  73   32   33 1
  74   32   73 1
  75   33   74 1
  76   33   75 1
  77   33   76 1
  78   34   35 1
  79   35   77 1
  80   35   78 1
  81   35   79 1

#	End of record

