#	Name: ASD01916540
#	Creating user name:	WinNT
#	Creation time:	15. 06. 2019 20:07

#	Modifying user name:	WinNT
#	Modification time:	15. 06. 2019 20:07

#	Program:	/corina/corina34_cracker 3.40 0067  02.08.2006

@<TRIPOS>MOLECULE
ASD01916540
  43   46    0    0    0
SMALL
NO_CHARGES


@<TRIPOS>ATOM
   1 C1            -0.0171     1.4099     0.0098 C.ar    
   2 C2             0.0021    -0.0041     0.0020 C.ar    
   3 C3            -1.1911    -0.7255     0.0414 C.ar    
   4 C4            -2.3838    -0.0642     0.0741 C.ar    
   5 C5            -2.4216     1.3384     0.0659 C.ar    
   6 C6            -1.2408     2.0763     0.0357 C.ar    
   7 N7             1.1598     2.0752     0.0021 N.2     
   8 C8             2.3198     1.4679    -0.0397 C.2     
   9 N9             2.4202     0.1198    -0.1575 N.am    
  10 C10            1.3106    -0.6628    -0.0625 C.2     
  11 C11           -3.6830     2.0158     0.0886 C.1     
  12 C12           -4.7172     2.5712     0.1073 C.1     
  13 C13           -5.9786     3.2487     0.1300 C.ar    
  14 N14           -6.0016     4.5772     0.1219 N.ar    
  15 C15           -7.1482     5.2329     0.1423 C.ar    
  16 C16           -8.3386     4.5161     0.1726 C.ar    
  17 C17           -8.2782     3.1275     0.1802 C.ar    
  18 N18           -7.0985     2.5338     0.1533 N.ar    
  19 O19            1.4020    -1.8764    -0.0325 O.2     
  20 C20            3.5356     2.3454     0.1020 C.3     
  21 C21            4.7921     1.6931    -0.4308 C.3     
  22 C22            4.8967     0.2366    -0.0270 C.3     
  23 C23            3.6798    -0.5615    -0.4368 C.3     
  24 C24            6.1350    -0.3733    -0.6869 C.3     
  25 C25            5.0557     0.1534     1.4924 C.3     
  26 F26           -9.5287     5.1552     0.1944 F       
  27 H27           -1.1707    -1.8053     0.0456 H       
  28 H28           -3.3064    -0.6247     0.1063 H       
  29 H29           -1.2732     3.1558     0.0316 H       
  30 H30           -7.1604     6.3128     0.1359 H       
  31 H31           -9.1848     2.5411     0.2036 H       
  32 H32            3.3641     3.2747    -0.4412 H       
  33 H33            3.6803     2.5785     1.1570 H       
  34 H34            4.7909     1.7592    -1.5188 H       
  35 H35            5.6595     2.2298    -0.0465 H       
  36 H36            3.6891    -1.5119     0.0970 H       
  37 H37            3.7382    -0.7637    -1.5063 H       
  38 H38            7.0241     0.1648    -0.3581 H       
  39 H39            6.2191    -1.4221    -0.4022 H       
  40 H40            6.0441    -0.2970    -1.7704 H       
  41 H41            4.1898     0.6079     1.9738 H       
  42 H42            5.1319    -0.8915     1.7931 H       
  43 H43            5.9589     0.6847     1.7928 H       
@<TRIPOS>BOND
   1    1    2 ar
   2    1    7 1
   3    1    6 ar
   4    2    3 ar
   5    2   10 1
   6    3    4 ar
   7    3   27 1
   8    4    5 ar
   9    4   28 1
  10    5    6 ar
  11    5   11 1
  12    6   29 1
  13    7    8 2
  14    8    9 1
  15    8   20 1
  16    9   10 am
  17    9   23 1
  18   10   19 2
  19   11   12 3
  20   12   13 1
  21   13   14 ar
  22   13   18 ar
  23   14   15 ar
  24   15   16 ar
  25   15   30 1
  26   16   17 ar
  27   16   26 1
  28   17   18 ar
  29   17   31 1
  30   20   21 1
  31   20   32 1
  32   20   33 1
  33   21   22 1
  34   21   34 1
  35   21   35 1
  36   22   23 1
  37   22   24 1
  38   22   25 1
  39   23   36 1
  40   23   37 1
  41   24   38 1
  42   24   39 1
  43   24   40 1
  44   25   41 1
  45   25   42 1
  46   25   43 1

#	End of record

