#	Name: ASD03081166
#	Creating user name:	WinNT
#	Creation time:	15. 06. 2019 20:27

#	Modifying user name:	WinNT
#	Modification time:	15. 06. 2019 20:27

#	Program:	/corina/corina34_cracker 3.40 0067  02.08.2006

@<TRIPOS>MOLECULE
ASD03081166
  16   17    0    0    0
SMALL
NO_CHARGES


@<TRIPOS>ATOM
   1 O1            -0.0161     1.3381     0.0094 O.3     
   2 C2             0.0021    -0.0041     0.0020 C.2     
   3 N3             1.2783    -0.4366    -0.0125 N.am    
   4 C4             2.1023     0.6894    -0.0143 C.ar    
   5 C5             1.2571     1.8017    -0.0003 C.ar    
   6 C6             1.7948     3.0816     0.0015 C.ar    
   7 C7             3.1610     3.2572    -0.0111 C.ar    
   8 C8             4.0118     2.1479    -0.0252 C.ar    
   9 C9             3.4740     0.8591    -0.0265 C.ar    
  10 C10            5.4318     2.3329    -0.0387 C.1     
  11 N11            6.5582     2.4796    -0.0494 N.1     
  12 O12           -0.9813    -0.7192     0.0076 O.2     
  13 H13            1.5706    -1.3615    -0.0202 H       
  14 H14            1.1409     3.9410     0.0123 H       
  15 H15            3.5760     4.2543    -0.0104 H       
  16 H16            4.1269    -0.0012    -0.0370 H       
@<TRIPOS>BOND
   1    1    2 1
   2    1    5 1
   3    2    3 am
   4    2   12 2
   5    3    4 1
   6    3   13 1
   7    4    5 ar
   8    4    9 ar
   9    5    6 ar
  10    6    7 ar
  11    6   14 1
  12    7    8 ar
  13    7   15 1
  14    8    9 ar
  15    8   10 1
  16    9   16 1
  17   10   11 3

#	End of record

