#	Name: ASD01812768
#	Creating user name:	WinNT
#	Creation time:	15. 06. 2019 19:29

#	Modifying user name:	WinNT
#	Modification time:	15. 06. 2019 19:29

#	Program:	/corina/corina34_cracker 3.40 0067  02.08.2006

@<TRIPOS>MOLECULE
ASD01812768
  46   49    0    0    0
SMALL
NO_CHARGES


@<TRIPOS>ATOM
   1 C1             0.0577     1.4304    -0.6145 C.ar    
   2 C2             0.1013     0.0681    -0.8343 C.ar    
   3 C3             1.2833    -0.6330    -0.6482 C.ar    
   4 C4             2.4191     0.0258    -0.2438 C.ar    
   5 C5             2.3933     1.4052    -0.0169 C.ar    
   6 C6             1.1963     2.1093    -0.2059 C.ar    
   7 C7             3.8294    -0.4261     0.0430 C.3     
   8 N8             4.5723     0.7762     0.4378 N.am    
   9 C9             3.7391     1.8304     0.4017 C.2     
  10 C10            5.9884     0.8203     0.8104 C.3     
  11 C11            6.8241     1.0650    -0.4196 C.ar    
  12 C12            7.1236     2.3582    -0.8053 C.ar    
  13 C13            7.8900     2.5832    -1.9333 C.ar    
  14 C14            8.3574     1.5139    -2.6763 C.ar    
  15 C15            8.0573     0.2198    -2.2898 C.ar    
  16 C16            7.2956    -0.0041    -1.1584 C.ar    
  17 O17            1.1515     3.4479     0.0091 O.3     
  18 O18            4.0523     2.9728     0.6761 O.2     
  19 Cl19           9.3196     1.7958    -4.0935 Cl      
  20 C20           -0.1276     4.0779    -0.0868 C.3     
  21 C21           -0.1314     5.3599     0.7516 C.3     
  22 C22           -1.4777     6.0684     0.5802 C.3     
  23 O23           -1.6961     6.3448    -0.8047 O.3     
  24 C24           -1.7496     5.1800    -1.6308 C.3     
  25 C25           -0.4142     4.4358    -1.5483 C.3     
  26 O26            0.0631     5.0306     2.1285 O.3     
  27 H27           -0.8654     1.9703    -0.7655 H       
  28 H28           -0.7890    -0.4540    -1.1523 H       
  29 H29            1.3109    -1.6987    -0.8211 H       
  30 H30            3.8323    -1.1522     0.8559 H       
  31 H31            4.2721    -0.8631    -0.8521 H       
  32 H32            6.1508     1.6261     1.5263 H       
  33 H33            6.2751    -0.1297     1.2614 H       
  34 H34            6.7584     3.1929    -0.2254 H       
  35 H35            8.1237     3.5937    -2.2348 H       
  36 H36            8.4219    -0.6153    -2.8694 H       
  37 H37            7.0649    -1.0143    -0.8541 H       
  38 H38           -0.8969     3.3991     0.2814 H       
  39 H39            0.6712     6.0168     0.4163 H       
  40 H40           -2.2761     5.4269     0.9532 H       
  41 H41           -1.4705     7.0032     1.1407 H       
  42 H42           -2.5515     4.5269    -1.2868 H       
  43 H43           -1.9382     5.4748    -2.6631 H       
  44 H44            0.3827     5.0740    -1.9300 H       
  45 H45           -0.4681     3.5238    -2.1428 H       
  46 H46            0.0716     5.7966     2.7186 H       
@<TRIPOS>BOND
   1    1    2 ar
   2    1    6 ar
   3    1   27 1
   4    2    3 ar
   5    2   28 1
   6    3    4 ar
   7    3   29 1
   8    4    7 1
   9    4    5 ar
  10    5    6 ar
  11    5    9 1
  12    6   17 1
  13    7    8 1
  14    7   30 1
  15    7   31 1
  16    8    9 am
  17    8   10 1
  18    9   18 2
  19   10   11 1
  20   10   32 1
  21   10   33 1
  22   11   12 ar
  23   11   16 ar
  24   12   13 ar
  25   12   34 1
  26   13   14 ar
  27   13   35 1
  28   14   15 ar
  29   14   19 1
  30   15   16 ar
  31   15   36 1
  32   16   37 1
  33   17   20 1
  34   20   21 1
  35   20   25 1
  36   20   38 1
  37   21   22 1
  38   21   26 1
  39   21   39 1
  40   22   23 1
  41   22   40 1
  42   22   41 1
  43   23   24 1
  44   24   25 1
  45   24   42 1
  46   24   43 1
  47   25   44 1
  48   25   45 1
  49   26   46 1

#	End of record

