#	Name: ASD08178225
#	Creating user name:	WinNT
#	Creation time:	15. 06. 2019 21:18

#	Modifying user name:	WinNT
#	Modification time:	15. 06. 2019 21:18

#	Program:	/corina/corina34_cracker 3.40 0067  02.08.2006

@<TRIPOS>MOLECULE
ASD08178225
  71   73    0    0    0
SMALL
NO_CHARGES


@<TRIPOS>ATOM
   1 C1            -0.0191     1.5027     0.0207 C.ar    
   2 C2             0.0010    -0.0042     0.0166 C.3     
   3 C3            -0.8034    -0.5283     1.2078 C.3     
   4 C4            -0.7830    -2.0581     1.2036 C.3     
   5 C5            -1.5874    -2.5822     2.3949 C.3     
   6 C6            -1.5673    -4.0891     2.3907 C.2     
   7 N7            -0.6926    -4.8430     2.9773 N.2     
   8 N8            -0.8493    -6.0898     2.8558 N.2     
   9 C9            -1.8644    -6.5050     2.1598 C.2     
  10 S10           -2.7350    -5.1430     1.5925 S.3     
  11 N11           -2.1931    -7.8348     1.9197 N.am    
  12 C12           -1.4281    -8.8206     2.4289 C.2     
  13 C13           -1.7844   -10.2616     2.1687 C.3     
  14 O14           -0.4530    -8.5481     3.0966 O.2     
  15 C15           -0.7780   -11.1576     2.8435 C.ar    
  16 C16           -0.9904   -11.5805     4.1421 C.ar    
  17 C17           -0.0670   -12.4025     4.7612 C.ar    
  18 C18            1.0682   -12.8017     4.0814 C.ar    
  19 C19            1.2802   -12.3794     2.7821 C.ar    
  20 C20            0.3550   -11.5612     2.1617 C.ar    
  21 C21            1.1728     2.2124     0.0064 C.ar    
  22 C22            1.1067     3.5974     0.0109 C.ar    
  23 C23           -0.1542     4.1903     0.0295 C.ar    
  24 N24           -1.2376     3.4283     0.0422 N.ar    
  25 N25           -1.1697     2.1466     0.0324 N.ar    
  26 N26           -0.2749     5.5795     0.0353 N.am    
  27 C27           -1.4926     6.1505    -0.0517 C.2     
  28 C28           -1.6342     7.6458     0.0713 C.3     
  29 O29           -2.4744     5.4610    -0.2290 O.2     
  30 C30            2.5182   -12.8143     2.0409 C.3     
  31 N31            2.2473   -14.0663     1.3300 N.am    
  32 C32            3.2160   -14.6468     0.5945 C.2     
  33 O33            2.9670   -15.7974    -0.0589 O.3     
  34 O34            4.3141   -14.1318     0.5209 O.2     
  35 C35            4.0570   -16.3659    -0.8316 C.3     
  36 C36            5.2367   -16.6663     0.0951 C.3     
  37 C37            3.5887   -17.6613    -1.4975 C.3     
  38 C38            4.4941   -15.3689    -1.9068 C.3     
  39 H39           -0.4409    -0.3709    -0.9099 H       
  40 H40            1.0307    -0.3540     0.0914 H       
  41 H41           -0.3615    -0.1615     2.1343 H       
  42 H42           -1.8331    -0.1785     1.1331 H       
  43 H43           -1.2249    -2.4249     0.2772 H       
  44 H44            0.2467    -2.4079     1.2784 H       
  45 H45           -1.1455    -2.2155     3.3213 H       
  46 H46           -2.6171    -2.2324     2.3201 H       
  47 H47           -2.9730    -8.0528     1.3857 H       
  48 H48           -2.7782   -10.4676     2.5661 H       
  49 H49           -1.7761   -10.4498     1.0951 H       
  50 H50           -1.8774   -11.2685     4.6733 H       
  51 H51           -0.2326   -12.7323     5.7762 H       
  52 H52            1.7898   -13.4432     4.5652 H       
  53 H53            0.5206   -11.2314     1.1467 H       
  54 H54            2.1241     1.7012    -0.0074 H       
  55 H55            2.0044     4.1978     0.0007 H       
  56 H56            0.5176     6.1349     0.1018 H       
  57 H57           -1.0588     8.1313    -0.7169 H       
  58 H58           -2.6848     7.9203    -0.0241 H       
  59 H59           -1.2615     7.9672     1.0438 H       
  60 H60            2.8022   -12.0437     1.3243 H       
  61 H61            3.3313   -12.9680     2.7505 H       
  62 H62            1.3707   -14.4775     1.3887 H       
  63 H63            4.9253   -17.3766     0.8611 H       
  64 H64            6.0549   -17.0931    -0.4849 H       
  65 H65            5.5703   -15.7434     0.5695 H       
  66 H66            2.7482   -17.4472    -2.1577 H       
  67 H67            4.4069   -18.0880    -2.0776 H       
  68 H68            3.2773   -18.3716    -0.7315 H       
  69 H69            4.8277   -14.4460    -1.4324 H       
  70 H70            5.3123   -15.7956    -2.4868 H       
  71 H71            3.6537   -15.1548    -2.5670 H       
@<TRIPOS>BOND
   1    1    2 1
   2    1   21 ar
   3    1   25 ar
   4    2    3 1
   5    2   39 1
   6    2   40 1
   7    3    4 1
   8    3   41 1
   9    3   42 1
  10    4    5 1
  11    4   43 1
  12    4   44 1
  13    5    6 1
  14    5   45 1
  15    5   46 1
  16    6    7 2
  17    6   10 1
  18    7    8 1
  19    8    9 2
  20    9   10 1
  21    9   11 1
  22   11   12 am
  23   11   47 1
  24   12   13 1
  25   12   14 2
  26   13   15 1
  27   13   48 1
  28   13   49 1
  29   15   16 ar
  30   15   20 ar
  31   16   17 ar
  32   16   50 1
  33   17   18 ar
  34   17   51 1
  35   18   19 ar
  36   18   52 1
  37   19   20 ar
  38   19   30 1
  39   20   53 1
  40   21   22 ar
  41   21   54 1
  42   22   23 ar
  43   22   55 1
  44   23   24 ar
  45   23   26 1
  46   24   25 ar
  47   26   27 am
  48   26   56 1
  49   27   28 1
  50   27   29 2
  51   28   57 1
  52   28   58 1
  53   28   59 1
  54   30   31 1
  55   30   60 1
  56   30   61 1
  57   31   32 am
  58   31   62 1
  59   32   33 1
  60   32   34 2
  61   33   35 1
  62   35   36 1
  63   35   37 1
  64   35   38 1
  65   36   63 1
  66   36   64 1
  67   36   65 1
  68   37   66 1
  69   37   67 1
  70   37   68 1
  71   38   69 1
  72   38   70 1
  73   38   71 1

#	End of record

