#	Name: ASD01811286
#	Creating user name:	WinNT
#	Creation time:	15. 06. 2019 19:26

#	Modifying user name:	WinNT
#	Modification time:	15. 06. 2019 19:26

#	Program:	/corina/corina34_cracker 3.40 0067  02.08.2006

@<TRIPOS>MOLECULE
ASD01811286
  45   49    0    0    0
SMALL
NO_CHARGES


@<TRIPOS>ATOM
   1 C1            -0.0168     1.3873     0.0097 C.ar    
   2 C2             0.0021    -0.0041     0.0020 C.ar    
   3 C3             1.2152    -0.6854    -0.0133 C.ar    
   4 C4             2.4029     0.0179    -0.0209 C.ar    
   5 C5             2.3864     1.4134    -0.0132 C.ar    
   6 C6             1.1685     2.0947     0.0022 C.ar    
   7 C7             3.6586     2.1697    -0.0209 C.ar    
   8 C8             4.6633     1.8691     0.8779 C.ar    
   9 C9             5.8652     2.5719     0.8819 C.ar    
  10 C10            6.1238     3.5829     0.0162 C.ar    
  11 C11            3.8814     3.2482    -0.9853 C.ar    
  12 N12            3.8839     4.7891    -2.5532 N.pl3   
  13 C13            3.1452     3.8144    -2.0027 C.2     
  14 C14            5.1631     3.9692    -0.9423 C.ar    
  15 N15            5.1148     4.8845    -1.8935 N.2     
  16 C16            3.4605     5.6364    -3.6708 C.3     
  17 F17            1.2306    -2.0363    -0.0202 F       
  18 F18           -1.1961     2.0463     0.0188 F       
  19 N19           -1.2008    -0.7192     0.0102 N.am    
  20 C20           -1.7836    -1.0524    -1.1579 C.2     
  21 C21           -3.1283    -1.6618    -1.1465 C.ar    
  22 C22           -3.3209    -0.9297     1.2441 C.3     
  23 C23           -1.8045    -1.0995     1.2856 C.3     
  24 C24           -5.6081    -2.7589    -0.9938 C.ar    
  25 N25           -5.0811    -2.1701     0.0627 N.ar    
  26 C26           -3.8864    -1.6185     0.0260 C.ar    
  27 C27           -3.6645    -2.2576    -2.2880 C.ar    
  28 C28           -4.9287    -2.8179    -2.1972 C.ar    
  29 O29           -1.2084    -0.8530    -2.2103 O.2     
  30 H30            3.3443    -0.5114    -0.0324 H       
  31 H31            1.1533     3.1745     0.0078 H       
  32 H32            4.5134     1.0732     1.5924 H       
  33 H33            6.6217     2.3011     1.6035 H       
  34 H34            7.0726     4.0969     0.0609 H       
  35 H35            2.1496     3.5242    -2.3042 H       
  36 H36            2.9574     6.5228    -3.2845 H       
  37 H37            4.3336     5.9374    -4.2497 H       
  38 H38            2.7753     5.0793    -4.3098 H       
  39 H39           -3.7582    -1.3654     2.1425 H       
  40 H40           -3.5648     0.1319     1.2040 H       
  41 H41           -1.5666    -2.1418     1.4978 H       
  42 H42           -1.3954    -0.4714     2.0769 H       
  43 H43           -6.5890    -3.2043    -0.9173 H       
  44 H44           -3.1111    -2.2812    -3.2152 H       
  45 H45           -5.3780    -3.2949    -3.0557 H       
@<TRIPOS>BOND
   1    1    2 ar
   2    1    6 ar
   3    1   18 1
   4    2    3 ar
   5    2   19 1
   6    3    4 ar
   7    3   17 1
   8    4    5 ar
   9    4   30 1
  10    5    6 ar
  11    5    7 1
  12    6   31 1
  13    7    8 ar
  14    7   11 ar
  15    8    9 ar
  16    8   32 1
  17    9   10 ar
  18    9   33 1
  19   10   14 ar
  20   10   34 1
  21   11   14 ar
  22   11   13 2
  23   12   13 1
  24   12   15 1
  25   12   16 1
  26   13   35 1
  27   14   15 2
  28   16   36 1
  29   16   37 1
  30   16   38 1
  31   19   20 am
  32   19   23 1
  33   20   21 1
  34   20   29 2
  35   21   27 ar
  36   21   26 ar
  37   22   23 1
  38   22   26 1
  39   22   39 1
  40   22   40 1
  41   23   41 1
  42   23   42 1
  43   24   25 ar
  44   24   28 ar
  45   24   43 1
  46   25   26 ar
  47   27   28 ar
  48   27   44 1
  49   28   45 1

#	End of record

