#	Name: ASD01478049
#	Creating user name:	WinNT
#	Creation time:	15. 06. 2019 19:21

#	Modifying user name:	WinNT
#	Modification time:	15. 06. 2019 19:21

#	Program:	/corina/corina34_cracker 3.40 0067  02.08.2006

@<TRIPOS>MOLECULE
ASD01478049
  78   81    0    0    0
SMALL
NO_CHARGES


@<TRIPOS>ATOM
   1 C1            -0.5416     2.8543    -1.3506 C.3     
   2 C2            -0.6605     1.3830    -1.8015 C.3     
   3 C3             0.9786     3.0860    -1.2091 C.3     
   4 O4             1.5310     1.7738    -0.9728 O.3     
   5 C5             0.8123     0.8857    -1.8535 C.3     
   6 C6            -1.7343     4.2662     0.1594 C.2     
   7 O7            -1.2063     3.0499    -0.0746 O.3     
   8 N8            -2.3650     4.5142     1.3244 N.am    
   9 O9            -1.6422     5.1402    -0.6796 O.2     
  10 C10           -4.3426     5.9097     0.9731 C.3     
  11 C11           -2.9395     5.8376     1.5791 C.3     
  12 C12           -3.0229     6.0756     3.0881 C.3     
  13 C13           -3.5055     7.5030     3.3534 C.3     
  14 N14           -3.4605     7.7742     4.7924 N.am    
  15 S15           -4.8642     8.0453     5.6281 S.o2    
  16 C16           -5.4373     6.4825     6.2060 C.ar    
  17 C17           -5.0330     6.0132     7.4422 C.ar    
  18 C18           -5.4808     4.7882     7.8975 C.ar    
  19 C19           -6.3370     4.0288     7.1133 C.ar    
  20 C20           -6.7412     4.5019     5.8734 C.ar    
  21 C21           -6.2950     5.7300     5.4250 C.ar    
  22 O22           -4.5062     8.7931     6.7821 O.2     
  23 O23           -5.8179     8.4951     4.6755 O.2     
  24 C24           -2.1738     7.8056     5.4921 C.3     
  25 C25           -1.3589     9.0063     5.0074 C.3     
  26 C26           -2.0919    10.2997     5.3691 C.3     
  27 C27            0.0158     8.9943     5.6790 C.3     
  28 O28           -3.9418     5.1468     3.6668 O.3     
  29 O29            0.7767    -0.4264    -1.2546 O.3     
  30 C30           -0.1316    -0.3174    -0.1381 C.3     
  31 C31           -1.2906     0.5615    -0.6568 C.3     
  32 O32           -1.7640     1.4264     0.3776 O.3     
  33 C33           -4.2483     5.7979    -0.5268 C.ar    
  34 C34           -4.3020     4.5562    -1.1320 C.ar    
  35 C35           -4.2155     4.4537    -2.5078 C.ar    
  36 C36           -4.0759     5.5928    -3.2784 C.ar    
  37 C37           -4.0231     6.8345    -2.6732 C.ar    
  38 C38           -4.1139     6.9374    -1.2977 C.ar    
  39 O39           -6.7786     2.8233     7.5589 O.3     
  40 C40           -7.6578     2.0961     6.6985 C.3     
  41 H41           -0.9602     3.5196    -2.1057 H       
  42 H42           -1.1820     1.2723    -2.7522 H       
  43 H43            1.3850     3.5091    -2.1278 H       
  44 H44            1.1853     3.7426    -0.3640 H       
  45 H45            1.2187     0.8815    -2.8649 H       
  46 H46           -2.4386     3.8165     1.9942 H       
  47 H47           -4.9484     5.0909     1.3612 H       
  48 H48           -4.8044     6.8607     1.2383 H       
  49 H49           -2.3080     6.6013     1.1251 H       
  50 H50           -2.0374     5.9366     3.5328 H       
  51 H51           -2.8593     8.2081     2.8305 H       
  52 H52           -4.5288     7.6131     2.9947 H       
  53 H53           -4.3662     6.6046     8.0521 H       
  54 H54           -5.1645     4.4220     8.8630 H       
  55 H55           -7.4077     3.9126     5.2611 H       
  56 H56           -6.6094     6.0988     4.4598 H       
  57 H57           -2.3456     7.8923     6.5649 H       
  58 H58           -1.6252     6.8867     5.2851 H       
  59 H59           -1.2354     8.9490     3.9259 H       
  60 H60           -1.5113    11.1551     5.0238 H       
  61 H61           -3.0712    10.3082     4.8907 H       
  62 H62           -2.2153    10.3570     6.4506 H       
  63 H63            0.5380     8.0729     5.4212 H       
  64 H64            0.5964     9.8498     5.3337 H       
  65 H65           -0.1076     9.0517     6.7604 H       
  66 H66           -4.8410     5.2136     3.3173 H       
  67 H67           -0.5008    -1.3021     0.1483 H       
  68 H68            0.3613     0.1643     0.7064 H       
  69 H69           -2.1013    -0.0610    -1.0355 H       
  70 H70           -2.1179     0.9612     1.1479 H       
  71 H71           -4.4111     3.6663    -0.5300 H       
  72 H72           -4.2567     3.4835    -2.9807 H       
  73 H73           -4.0076     5.5126    -4.3533 H       
  74 H74           -3.9136     7.7244    -3.2753 H       
  75 H75           -4.0765     7.9078    -0.8251 H       
  76 H76           -7.9340     1.1545     7.1731 H       
  77 H77           -8.5552     2.6864     6.5131 H       
  78 H78           -7.1550     1.8926     5.7531 H       
@<TRIPOS>BOND
   1    1    2 1
   2    1    3 1
   3    1    7 1
   4    1   41 1
   5    2    5 1
   6    2   31 1
   7    2   42 1
   8    3    4 1
   9    3   43 1
  10    3   44 1
  11    4    5 1
  12    5   29 1
  13    5   45 1
  14    6    7 1
  15    6    8 am
  16    6    9 2
  17    8   11 1
  18    8   46 1
  19   10   11 1
  20   10   33 1
  21   10   47 1
  22   10   48 1
  23   11   12 1
  24   11   49 1
  25   12   13 1
  26   12   28 1
  27   12   50 1
  28   13   14 1
  29   13   51 1
  30   13   52 1
  31   14   15 am
  32   14   24 1
  33   15   16 1
  34   15   22 2
  35   15   23 2
  36   16   17 ar
  37   16   21 ar
  38   17   18 ar
  39   17   53 1
  40   18   19 ar
  41   18   54 1
  42   19   20 ar
  43   19   39 1
  44   20   21 ar
  45   20   55 1
  46   21   56 1
  47   24   25 1
  48   24   57 1
  49   24   58 1
  50   25   26 1
  51   25   27 1
  52   25   59 1
  53   26   60 1
  54   26   61 1
  55   26   62 1
  56   27   63 1
  57   27   64 1
  58   27   65 1
  59   28   66 1
  60   29   30 1
  61   30   31 1
  62   30   67 1
  63   30   68 1
  64   31   32 1
  65   31   69 1
  66   32   70 1
  67   33   34 ar
  68   33   38 ar
  69   34   35 ar
  70   34   71 1
  71   35   36 ar
  72   35   72 1
  73   36   37 ar
  74   36   73 1
  75   37   38 ar
  76   37   74 1
  77   38   75 1
  78   39   40 1
  79   40   76 1
  80   40   77 1
  81   40   78 1

#	End of record

