#	Name: ASD03092739
#	Creating user name:	WinNT
#	Creation time:	15. 06. 2019 20:33

#	Modifying user name:	WinNT
#	Modification time:	15. 06. 2019 20:33

#	Program:	/corina/corina34_cracker 3.40 0067  02.08.2006

@<TRIPOS>MOLECULE
ASD03092739
  51   53    0    0    0
SMALL
NO_CHARGES


@<TRIPOS>ATOM
   1 C1            -0.0497     1.1857     0.0141 C.2     
   2 O2             0.6519     1.2268    -0.9782 O.2     
   3 C3             0.3878     0.4153     1.1972 C.ar    
   4 C4             1.5493    -0.3579     1.1405 C.ar    
   5 C5             1.9518    -1.0744     2.2482 C.ar    
   6 C6             1.2074    -1.0283     3.4139 C.ar    
   7 C7             0.0552    -0.2645     3.4769 C.ar    
   8 C8            -0.3554     0.4618     2.3786 C.ar    
   9 C9            -2.5494     1.2129    -0.0917 C.ar    
  10 C10           -1.3331     1.9089     0.0393 C.ar    
  11 C11           -1.3634     3.2985     0.1942 C.ar    
  12 C12           -2.6046     3.9338     0.2119 C.ar    
  13 C13           -3.7638     3.1701     0.0757 C.ar    
  14 N14           -3.7033     1.8621    -0.0683 N.ar    
  15 N15           -2.5391    -0.1596    -0.2515 N.pl3   
  16 C16           -3.8008    -0.9038    -0.2745 C.3     
  17 C17           -3.5104    -2.3943    -0.4620 C.3     
  18 C18           -4.8280    -3.1715    -0.4861 C.3     
  19 C19           -2.6912     5.4062     0.3742 C.ar    
  20 C20           -3.9350     6.0348     0.3909 C.ar    
  21 C21           -4.0124     7.4035     0.5419 C.ar    
  22 C22           -2.8530     8.1550     0.6766 C.ar    
  23 C23           -1.6127     7.5317     0.6603 C.ar    
  24 C24           -1.5293     6.1626     0.5159 C.ar    
  25 O25           -2.9323     9.5035     0.8243 O.3     
  26 C26           -1.7003    10.2151     0.9578 C.3     
  27 C27           -1.9888    11.7097     1.1127 C.3     
  28 H28            2.1309    -0.3950     0.2312 H       
  29 H29            2.8496    -1.6730     2.2056 H       
  30 H30            1.5271    -1.5913     4.2784 H       
  31 H31           -0.5214    -0.2336     4.3896 H       
  32 H32           -1.2523     1.0613     2.4306 H       
  33 H33           -0.4496     3.8647     0.2979 H       
  34 H34           -4.7267     3.6590     0.0889 H       
  35 H35           -1.6965    -0.6303    -0.3483 H       
  36 H36           -4.3293    -0.7522     0.6666 H       
  37 H37           -4.4179    -0.5474    -1.0993 H       
  38 H38           -2.9818    -2.5459    -1.4031 H       
  39 H39           -2.8933    -2.7507     0.3628 H       
  40 H40           -5.3566    -3.0199     0.4550 H       
  41 H41           -5.4451    -2.8151    -1.3109 H       
  42 H42           -4.6211    -4.2334    -0.6196 H       
  43 H43           -4.8373     5.4507     0.2854 H       
  44 H44           -4.9759     7.8912     0.5549 H       
  45 H45           -0.7124     8.1190     0.7650 H       
  46 H46           -0.5643     5.6777     0.5078 H       
  47 H47           -1.1662     9.8551     1.8371 H       
  48 H48           -1.0892    10.0532     0.0698 H       
  49 H49           -2.5229    12.0697     0.2334 H       
  50 H50           -2.5999    11.8716     2.0006 H       
  51 H51           -1.0490    12.2524     1.2145 H       
@<TRIPOS>BOND
   1    1    2 2
   2    1    3 1
   3    1   10 1
   4    3    4 ar
   5    3    8 ar
   6    4    5 ar
   7    4   28 1
   8    5    6 ar
   9    5   29 1
  10    6    7 ar
  11    6   30 1
  12    7    8 ar
  13    7   31 1
  14    8   32 1
  15    9   10 ar
  16    9   14 ar
  17    9   15 1
  18   10   11 ar
  19   11   12 ar
  20   11   33 1
  21   12   13 ar
  22   12   19 1
  23   13   14 ar
  24   13   34 1
  25   15   16 1
  26   15   35 1
  27   16   17 1
  28   16   36 1
  29   16   37 1
  30   17   18 1
  31   17   38 1
  32   17   39 1
  33   18   40 1
  34   18   41 1
  35   18   42 1
  36   19   20 ar
  37   19   24 ar
  38   20   21 ar
  39   20   43 1
  40   21   22 ar
  41   21   44 1
  42   22   23 ar
  43   22   25 1
  44   23   24 ar
  45   23   45 1
  46   24   46 1
  47   25   26 1
  48   26   27 1
  49   26   47 1
  50   26   48 1
  51   27   49 1
  52   27   50 1
  53   27   51 1

#	End of record

