#	Name: ASD03090499
#	Creating user name:	WinNT
#	Creation time:	15. 06. 2019 20:28

#	Modifying user name:	WinNT
#	Modification time:	15. 06. 2019 20:28

#	Program:	/corina/corina34_cracker 3.40 0067  02.08.2006

@<TRIPOS>MOLECULE
ASD03090499
  42   45    0    0    0
SMALL
NO_CHARGES


@<TRIPOS>ATOM
   1 C1            -0.0181     1.5035     0.0013 C.2     
   2 C2             0.0033    -0.0033    -0.0068 C.3     
   3 O3             1.0234     2.1248    -0.0136 O.2     
   4 N4            -1.1946     2.1607     0.0195 N.am    
   5 C5            -1.2152     3.5493     0.1323 C.ar    
   6 C6            -2.4260     4.2280     0.0359 C.ar    
   7 C7            -2.4384     5.6045     0.1492 C.ar    
   8 C8            -1.2231     6.2658     0.3580 C.ar    
   9 C9            -0.0520     5.5180     0.4436 C.ar    
  10 N10           -0.0832     4.2051     0.3352 N.ar    
  11 C11           -1.1831     7.7434     0.4859 C.ar    
  12 C12            0.0312     8.3947     0.6937 C.ar    
  13 C13            0.0626     9.7695     0.8115 C.ar    
  14 C14           -1.1083    10.5006     0.7236 C.ar    
  15 C15           -2.3165     9.8593     0.5178 C.ar    
  16 C16           -2.3589     8.4855     0.3929 C.ar    
  17 N17            5.3366    -1.8068     0.1648 N.pl3   
  18 C18            5.5199    -1.8675     1.5194 C.2     
  19 C19            4.3980    -1.4869     2.1505 C.2     
  20 C20            3.4159    -1.1553     1.1154 C.ar    
  21 C21            2.0933    -0.7082     1.1399 C.ar    
  22 C22            1.4308    -0.4854    -0.0340 C.ar    
  23 C23            2.0621    -0.6999    -1.2517 C.ar    
  24 C24            3.3661    -1.1412    -1.2990 C.ar    
  25 C25            4.0599    -1.3746    -0.1158 C.ar    
  26 H26           -0.4899    -0.3785     0.8900 H       
  27 H27           -0.5207    -0.3694    -0.8897 H       
  28 H28           -2.0270     1.6670    -0.0460 H       
  29 H29           -3.3454     3.6848    -0.1260 H       
  30 H30           -3.3637     6.1569     0.0781 H       
  31 H31            0.8913     6.0188     0.6042 H       
  32 H32            0.9460     7.8248     0.7628 H       
  33 H33            1.0031    10.2753     0.9729 H       
  34 H34           -1.0791    11.5763     0.8163 H       
  35 H35           -3.2278    10.4350     0.4507 H       
  36 H36           -3.3022     7.9861     0.2274 H       
  37 H37            6.0076    -2.0309    -0.4989 H       
  38 H38            6.4320    -2.1763     2.0084 H       
  39 H39            4.2478    -1.4350     3.2188 H       
  40 H40            1.5955    -0.5400     2.0835 H       
  41 H41            1.5252    -0.5193    -2.1713 H       
  42 H42            3.8483    -1.3055    -2.2513 H       
@<TRIPOS>BOND
   1    1    2 1
   2    1    3 2
   3    1    4 am
   4    2   22 1
   5    2   26 1
   6    2   27 1
   7    4    5 1
   8    4   28 1
   9    5    6 ar
  10    5   10 ar
  11    6    7 ar
  12    6   29 1
  13    7    8 ar
  14    7   30 1
  15    8    9 ar
  16    8   11 1
  17    9   10 ar
  18    9   31 1
  19   11   12 ar
  20   11   16 ar
  21   12   13 ar
  22   12   32 1
  23   13   14 ar
  24   13   33 1
  25   14   15 ar
  26   14   34 1
  27   15   16 ar
  28   15   35 1
  29   16   36 1
  30   17   18 1
  31   17   25 1
  32   17   37 1
  33   18   19 2
  34   18   38 1
  35   19   20 1
  36   19   39 1
  37   20   21 ar
  38   20   25 ar
  39   21   22 ar
  40   21   40 1
  41   22   23 ar
  42   23   24 ar
  43   23   41 1
  44   24   25 ar
  45   24   42 1

#	End of record

