#	Name: ASD01910805
#	Creating user name:	WinNT
#	Creation time:	15. 06. 2019 19:56

#	Modifying user name:	WinNT
#	Modification time:	15. 06. 2019 19:56

#	Program:	/corina/corina34_cracker 3.40 0067  02.08.2006

@<TRIPOS>MOLECULE
ASD01910805
  47   50    0    0    0
SMALL
NO_CHARGES


@<TRIPOS>ATOM
   1 C1            -0.2427     1.1469     0.3155 C.ar    
   2 C2            -0.1601    -0.2301     0.2386 C.ar    
   3 N3             1.0213    -0.8215     0.1783 N.ar    
   4 C4             2.1283    -0.0906     0.1912 C.ar    
   5 C5             2.0408     1.2978     0.2684 C.ar    
   6 N6             0.8584     1.8797     0.3287 N.ar    
   7 N7             3.3720    -0.7082     0.1285 N.3     
   8 C8             3.2314    -2.1685     0.0534 C.3     
   9 C9             4.6058    -2.7985    -0.1961 C.3     
  10 N10            5.5354    -2.3155     0.8363 N.am    
  11 C11            5.6293    -0.8656     1.0648 C.3     
  12 C12            4.2146    -0.3118     1.2646 C.3     
  13 C13            6.2812    -3.1787     1.5541 C.2     
  14 C14            7.3001    -2.6689     2.4967 C.ar    
  15 O15            6.1162    -4.3762     1.4267 O.2     
  16 C16            7.5023    -3.2954     3.7280 C.ar    
  17 N17            8.4074    -2.8483     4.5746 N.ar    
  18 C18            9.1589    -1.8005     4.3059 C.ar    
  19 C19            9.0237    -1.1123     3.0961 C.ar    
  20 C20            8.0786    -1.5567     2.1656 C.ar    
  21 C21            9.8440     0.0266     2.8120 C.1     
  22 C22           10.5165     0.9603     2.5790 C.1     
  23 C23           11.3368     2.0991     2.2948 C.ar    
  24 C24           11.1955     2.7814     1.0836 C.ar    
  25 C25           11.9887     3.8777     0.8170 C.ar    
  26 C26           12.9227     4.3024     1.7456 C.ar    
  27 C27           13.0685     3.6315     2.9470 C.ar    
  28 C28           12.2783     2.5370     3.2299 C.ar    
  29 H29           -1.2093     1.6266     0.3605 H       
  30 H30           -1.0617    -0.8245     0.2281 H       
  31 H31            2.9395     1.8967     0.2796 H       
  32 H32            2.8244    -2.5436     0.9924 H       
  33 H33            2.5587    -2.4276    -0.7643 H       
  34 H34            4.5269    -3.8842    -0.1387 H       
  35 H35            4.9691    -2.5066    -1.1814 H       
  36 H36            6.2270    -0.6733     1.9558 H       
  37 H37            6.0909    -0.3879     0.2007 H       
  38 H38            4.2550     0.7758     1.3254 H       
  39 H39            3.7939    -0.7126     2.1868 H       
  40 H40            6.9082    -4.1584     3.9903 H       
  41 H41            9.8888    -1.4683     5.0293 H       
  42 H42            7.9480    -1.0490     1.2213 H       
  43 H43           10.4673     2.4508     0.3578 H       
  44 H44           11.8809     4.4059    -0.1188 H       
  45 H45           13.5411     5.1616     1.5315 H       
  46 H46           13.7998     3.9684     3.6669 H       
  47 H47           12.3930     2.0145     4.1681 H       
@<TRIPOS>BOND
   1    1    2 ar
   2    1    6 ar
   3    1   29 1
   4    2    3 ar
   5    2   30 1
   6    3    4 ar
   7    4    5 ar
   8    4    7 1
   9    5    6 ar
  10    5   31 1
  11    7    8 1
  12    7   12 1
  13    8    9 1
  14    8   32 1
  15    8   33 1
  16    9   10 1
  17    9   34 1
  18    9   35 1
  19   10   11 1
  20   10   13 am
  21   11   12 1
  22   11   36 1
  23   11   37 1
  24   12   38 1
  25   12   39 1
  26   13   14 1
  27   13   15 2
  28   14   16 ar
  29   14   20 ar
  30   16   17 ar
  31   16   40 1
  32   17   18 ar
  33   18   19 ar
  34   18   41 1
  35   19   20 ar
  36   19   21 1
  37   20   42 1
  38   21   22 3
  39   22   23 1
  40   23   24 ar
  41   23   28 ar
  42   24   25 ar
  43   24   43 1
  44   25   26 ar
  45   25   44 1
  46   26   27 ar
  47   26   45 1
  48   27   28 ar
  49   27   46 1
  50   28   47 1

#	End of record

