#	Name: ASD03430058
#	Creating user name:	WinNT
#	Creation time:	15. 06. 2019 20:40

#	Modifying user name:	WinNT
#	Modification time:	15. 06. 2019 20:40

#	Program:	/corina/corina34_cracker 3.40 0067  02.08.2006

@<TRIPOS>MOLECULE
ASD03430058
  48   52    0    0    0
SMALL
NO_CHARGES


@<TRIPOS>ATOM
   1 C1             0.0532     1.3449    -0.0959 C.ar    
   2 C2             0.0667    -0.0413    -0.0814 C.ar    
   3 C3             1.2649    -0.7237    -0.0642 C.ar    
   4 C4             2.4732    -0.0335    -0.0510 C.ar    
   5 C5             2.4559     1.3575    -0.0701 C.ar    
   6 C6             1.2541     2.0449    -0.0914 C.ar    
   7 O7             3.5321    -0.8919    -0.0063 O.3     
   8 C8             1.6078    -2.1892    -0.0681 C.3     
   9 C9             3.1007    -2.2009    -0.4247 C.3     
  10 C10            0.4580    -3.8813     0.9950 C.ar    
  11 C11            1.3428    -2.8411     1.2561 C.ar    
  12 C12            0.7912    -2.9631    -1.0628 C.2     
  13 N13            0.1549    -3.9275    -0.3686 N.am    
  14 O14            0.7181    -2.7599    -2.2563 O.2     
  15 C15            1.7866    -2.6008     2.5513 C.ar    
  16 C16            1.3404    -3.4105     3.5987 C.ar    
  17 C17            0.4627    -4.4428     3.3379 C.ar    
  18 C18            0.0230    -4.6803     2.0507 C.ar    
  19 C19           -0.7482    -4.9100    -0.9729 C.3     
  20 O20           -1.1388     2.0027    -0.1202 O.3     
  21 C21           -1.1159     3.3895     0.2351 C.3     
  22 C22            0.0529     4.0550    -0.5041 C.3     
  23 O23            1.2646     3.4065    -0.1039 O.3     
  24 C24            2.7279    -1.4924     2.8194 C.2     
  25 N25            3.9035    -1.7396     3.4304 N.am    
  26 O26            2.4414    -0.3584     2.4887 O.2     
  27 C27            4.8791    -0.6608     3.6055 C.3     
  28 C28            4.2057    -3.0871     3.9195 C.3     
  29 H29           -0.8643    -0.5887    -0.0832 H       
  30 H30            3.3867     1.9052    -0.0676 H       
  31 H31            3.2413    -2.3300    -1.4979 H       
  32 H32            3.6255    -2.9776     0.1316 H       
  33 H33            1.6811    -3.2297     4.6075 H       
  34 H34            0.1173    -5.0699     4.1465 H       
  35 H35           -0.6640    -5.4917     1.8606 H       
  36 H36           -1.7659    -4.5195    -0.9679 H       
  37 H37           -0.4388    -5.1045    -1.9998 H       
  38 H38           -0.7119    -5.8371    -0.4007 H       
  39 H39           -2.0536     3.8602    -0.0604 H       
  40 H40           -0.9760     3.4911     1.3113 H       
  41 H41           -0.0833     3.9467    -1.5801 H       
  42 H42            0.0983     5.1124    -0.2434 H       
  43 H43            4.6989    -0.1587     4.5560 H       
  44 H44            5.8863    -1.0774     3.5998 H       
  45 H45            4.7779     0.0563     2.7908 H       
  46 H46            4.0953    -3.8026     3.1047 H       
  47 H47            5.2293    -3.1169     4.2931 H       
  48 H48            3.5174    -3.3442     4.7246 H       
@<TRIPOS>BOND
   1    1    2 ar
   2    1    6 ar
   3    1   20 1
   4    2    3 ar
   5    2   29 1
   6    3    4 ar
   7    3    8 1
   8    4    5 ar
   9    4    7 1
  10    5    6 ar
  11    5   30 1
  12    6   23 1
  13    7    9 1
  14    8    9 1
  15    8   11 1
  16    8   12 1
  17    9   31 1
  18    9   32 1
  19   10   11 ar
  20   10   13 1
  21   10   18 ar
  22   11   15 ar
  23   12   13 am
  24   12   14 2
  25   13   19 1
  26   15   16 ar
  27   15   24 1
  28   16   17 ar
  29   16   33 1
  30   17   18 ar
  31   17   34 1
  32   18   35 1
  33   19   36 1
  34   19   37 1
  35   19   38 1
  36   20   21 1
  37   21   22 1
  38   21   39 1
  39   21   40 1
  40   22   23 1
  41   22   41 1
  42   22   42 1
  43   24   25 am
  44   24   26 2
  45   25   27 1
  46   25   28 1
  47   27   43 1
  48   27   44 1
  49   27   45 1
  50   28   46 1
  51   28   47 1
  52   28   48 1

#	End of record

