#	Name: ASD09080009
#	Creating user name:	WinNT
#	Creation time:	15. 06. 2019 21:20

#	Modifying user name:	WinNT
#	Modification time:	15. 06. 2019 21:20

#	Program:	/corina/corina34_cracker 3.40 0067  02.08.2006

@<TRIPOS>MOLECULE
ASD09080009
  77   80    0    0    0
SMALL
NO_CHARGES


@<TRIPOS>ATOM
   1 C1            -0.4714     2.2709     2.3440 C.ar    
   2 C2            -0.2398     0.9231     2.1304 C.ar    
   3 C3            -1.2393     0.1181     1.6118 C.ar    
   4 C4            -2.4739     0.6569     1.3052 C.ar    
   5 C5            -2.7121     2.0129     1.5189 C.ar    
   6 C6            -1.7045     2.8179     2.0460 C.ar    
   7 Cl7            0.7873     3.2741     2.9942 Cl      
   8 Cl8           -0.9407    -1.5712     1.3456 Cl      
   9 C9            -4.0363     2.5968     1.1908 C.ar    
  10 C10           -4.3108     3.9266     1.5032 C.ar    
  11 C11           -5.5439     4.4647     1.1953 C.ar    
  12 C12           -6.5063     3.6864     0.5779 C.ar    
  13 C13           -6.2393     2.3655     0.2659 C.ar    
  14 C14           -5.0076     1.8188     0.5640 C.ar    
  15 C15           -7.8509     4.2795     0.2442 C.3     
  16 C16           -7.7857     4.9507    -1.1291 C.3     
  17 C17           -9.1472     5.4847    -1.4925 C.2     
  18 C18           -9.2885     6.7586    -1.8509 C.2     
  19 C19          -10.6311     7.3193    -2.0572 C.2     
  20 O20          -11.6071     6.5979    -1.9939 O.2     
  21 O21          -10.7800     8.6336    -2.3167 O.3     
  22 C22          -12.1044    10.6651    -2.5387 C.3     
  23 C23          -12.1380     9.1443    -2.3752 C.3     
  24 N24           -5.6567     5.9960    -1.8615 N.am    
  25 C25           -9.8557     9.4100    -5.6825 C.ar    
  26 C26           -9.8167    10.7327    -5.2827 C.ar    
  27 C27           -8.6823    11.2381    -4.6757 C.ar    
  28 C28           -7.5868    10.4208    -4.4684 C.ar    
  29 C29           -7.6258     9.0982    -4.8683 C.ar    
  30 C30           -8.7602     8.5927    -5.4753 C.ar    
  31 C31           -6.4315     8.2072    -4.6424 C.3     
  32 O32           -6.5847     7.5028    -3.3821 O.3     
  33 C33           -5.5434     6.7560    -2.9687 C.2     
  34 O34           -4.5016     6.7673    -3.5940 O.2     
  35 N35           -6.8233     6.0545    -1.0879 N.am    
  36 C36           -3.3176    11.1766     1.2947 C.ar    
  37 C37           -3.3882    12.1829     0.3495 C.ar    
  38 C38           -4.4645    12.2441    -0.5157 C.ar    
  39 C39           -5.4702    11.2991    -0.4359 C.ar    
  40 C40           -5.3996    10.2928     0.5093 C.ar    
  41 C41           -4.3233    10.2316     1.3745 C.ar    
  42 C42           -6.4960     9.2626     0.5963 C.3     
  43 O43           -6.1758     8.1407    -0.2680 O.3     
  44 C44           -7.0602     7.1263    -0.3059 C.2     
  45 O45           -8.0720     7.1771     0.3650 O.2     
  46 H46            0.7240     0.4982     2.3688 H       
  47 H47           -3.2530     0.0281     0.9003 H       
  48 H48           -1.8845     3.8695     2.2137 H       
  49 H49           -3.5602     4.5351     1.9856 H       
  50 H50           -5.7580     5.4953     1.4373 H       
  51 H51           -6.9946     1.7621    -0.2155 H       
  52 H52           -4.8001     0.7874     0.3200 H       
  53 H53           -8.6023     3.4900     0.2274 H       
  54 H54           -8.1187     5.0198     0.9981 H       
  55 H55           -7.4704     4.2215    -1.8754 H       
  56 H56          -10.0084     4.8336    -1.4621 H       
  57 H57           -8.4164     7.3803    -1.9901 H       
  58 H58          -11.4774    11.1004    -1.7606 H       
  59 H59          -11.6957    10.9164    -3.5175 H       
  60 H60          -13.1160    11.0620    -2.4546 H       
  61 H61          -12.6573     8.6990    -3.2238 H       
  62 H62          -12.6620     8.8894    -1.4540 H       
  63 H63           -4.9304     5.4084    -1.6002 H       
  64 H64          -10.7436     9.0139    -6.1528 H       
  65 H65          -10.6725    11.3713    -5.4449 H       
  66 H66           -8.6516    12.2717    -4.3639 H       
  67 H67           -6.7003    10.8159    -3.9948 H       
  68 H68           -8.7907     7.5593    -5.7874 H       
  69 H69           -6.3579     7.4852    -5.4556 H       
  70 H70           -5.5263     8.8137    -4.6120 H       
  71 H71           -2.4745    11.1261     1.9678 H       
  72 H72           -2.6026    12.9214     0.2874 H       
  73 H73           -4.5200    13.0307    -1.2537 H       
  74 H74           -6.3114    11.3474    -1.1115 H       
  75 H75           -4.2680     9.4452     2.1128 H       
  76 H76           -6.5864     8.9143     1.6252 H       
  77 H77           -7.4390     9.7079     0.2793 H       
@<TRIPOS>BOND
   1    1    2 ar
   2    1    7 1
   3    1    6 ar
   4    2    3 ar
   5    2   46 1
   6    3    4 ar
   7    3    8 1
   8    4    5 ar
   9    4   47 1
  10    5    6 ar
  11    5    9 1
  12    6   48 1
  13    9   10 ar
  14    9   14 ar
  15   10   11 ar
  16   10   49 1
  17   11   12 ar
  18   11   50 1
  19   12   13 ar
  20   12   15 1
  21   13   14 ar
  22   13   51 1
  23   14   52 1
  24   15   16 1
  25   15   53 1
  26   15   54 1
  27   16   17 1
  28   16   35 1
  29   16   55 1
  30   17   18 2
  31   17   56 1
  32   18   19 1
  33   18   57 1
  34   19   20 2
  35   19   21 1
  36   21   23 1
  37   22   23 1
  38   22   58 1
  39   22   59 1
  40   22   60 1
  41   23   61 1
  42   23   62 1
  43   24   33 am
  44   24   35 1
  45   24   63 1
  46   25   26 ar
  47   25   30 ar
  48   25   64 1
  49   26   27 ar
  50   26   65 1
  51   27   28 ar
  52   27   66 1
  53   28   29 ar
  54   28   67 1
  55   29   30 ar
  56   29   31 1
  57   30   68 1
  58   31   32 1
  59   31   69 1
  60   31   70 1
  61   32   33 1
  62   33   34 2
  63   35   44 am
  64   36   37 ar
  65   36   41 ar
  66   36   71 1
  67   37   38 ar
  68   37   72 1
  69   38   39 ar
  70   38   73 1
  71   39   40 ar
  72   39   74 1
  73   40   41 ar
  74   40   42 1
  75   41   75 1
  76   42   43 1
  77   42   76 1
  78   42   77 1
  79   43   44 1
  80   44   45 2

#	End of record

