#	Name: ASD08070012
#	Creating user name:	WinNT
#	Creation time:	15. 06. 2019 21:14

#	Modifying user name:	WinNT
#	Modification time:	15. 06. 2019 21:14

#	Program:	/corina/corina34_cracker 3.40 0067  02.08.2006

@<TRIPOS>MOLECULE
ASD08070012
  40   41    0    0    0
SMALL
NO_CHARGES


@<TRIPOS>ATOM
   1 C1            -0.0170     1.4029     0.0098 C.ar    
   2 C2             0.0021    -0.0041     0.0020 C.ar    
   3 C3            -1.1900    -0.7198     0.0095 C.ar    
   4 C4            -2.4000    -0.0303     0.0248 C.ar    
   5 C5            -2.4066     1.3703     0.0324 C.ar    
   6 C6            -1.2364     2.0723     0.0301 C.ar    
   7 O7             1.2646     1.8188    -0.0002 O.3     
   8 C8             2.1095     0.7731    -0.0139 C.2     
   9 C9             1.4224    -0.3768    -0.0135 C.2     
  10 C10           -3.6752    -0.7755     0.0325 C.2     
  11 N11           -4.8458    -0.1077     0.0472 N.am    
  12 O12           -3.6689    -1.9911     0.0255 O.2     
  13 C13           -6.1107    -0.8468     0.0548 C.3     
  14 C14           -7.1884     0.0081     0.6703 C.2     
  15 O15           -8.4389    -0.4664     0.7829 O.3     
  16 O16           -6.9267     1.1206     1.0623 O.2     
  17 C17           -9.4255     0.4121     1.3857 C.3     
  18 C18           -6.5010    -1.2045    -1.3807 C.3     
  19 C19           -5.4698    -2.1729    -1.9634 C.3     
  20 C20           -5.5159    -3.4926    -1.1906 C.3     
  21 C21           -5.7900    -2.4332    -3.4367 C.3     
  22 H22           -1.1777    -1.7997     0.0033 H       
  23 H23           -3.3476     1.9002     0.0439 H       
  24 H24           -1.2570     3.1521     0.0364 H       
  25 H25            3.1867     0.8492    -0.0243 H       
  26 H26            1.8308    -1.3766    -0.0225 H       
  27 H27           -4.8508     0.8623     0.0528 H       
  28 H28           -5.9942    -1.7603     0.6380 H       
  29 H29          -10.3911    -0.0926     1.4159 H       
  30 H30           -9.1157     0.6648     2.3997 H       
  31 H31           -9.5102     1.3235     0.7939 H       
  32 H32           -7.4840    -1.6755    -1.3833 H       
  33 H33           -6.5308    -0.2982    -1.9856 H       
  34 H34           -4.4742    -1.7373    -1.8794 H       
  35 H35           -6.5115    -3.9283    -1.2746 H       
  36 H36           -4.7812    -4.1826    -1.6057 H       
  37 H37           -5.2877    -3.3073    -0.1410 H       
  38 H38           -5.7572    -1.4930    -3.9872 H       
  39 H39           -5.0554    -3.1231    -3.8518 H       
  40 H40           -6.7856    -2.8688    -3.5206 H       
@<TRIPOS>BOND
   1    1    2 ar
   2    1    7 1
   3    1    6 ar
   4    2    3 ar
   5    2    9 1
   6    3    4 ar
   7    3   22 1
   8    4    5 ar
   9    4   10 1
  10    5    6 ar
  11    5   23 1
  12    6   24 1
  13    7    8 1
  14    8    9 2
  15    8   25 1
  16    9   26 1
  17   10   11 am
  18   10   12 2
  19   11   13 1
  20   11   27 1
  21   13   14 1
  22   13   18 1
  23   13   28 1
  24   14   15 1
  25   14   16 2
  26   15   17 1
  27   17   29 1
  28   17   30 1
  29   17   31 1
  30   18   19 1
  31   18   32 1
  32   18   33 1
  33   19   20 1
  34   19   21 1
  35   19   34 1
  36   20   35 1
  37   20   36 1
  38   20   37 1
  39   21   38 1
  40   21   39 1
  41   21   40 1

#	End of record

