#	Name: ASD01913919
#	Creating user name:	WinNT
#	Creation time:	15. 06. 2019 20:02

#	Modifying user name:	WinNT
#	Modification time:	15. 06. 2019 20:02

#	Program:	/corina/corina34_cracker 3.40 0067  02.08.2006

@<TRIPOS>MOLECULE
ASD01913919
  43   45    0    0    0
SMALL
NO_CHARGES


@<TRIPOS>ATOM
   1 C1            -0.0173     1.4278     0.0099 C.ar    
   2 C2             0.0021    -0.0041     0.0020 C.1     
   3 C3             0.0180    -1.1779    -0.0044 C.1     
   4 C4             0.0374    -2.6098    -0.0123 C.ar    
   5 C5            -1.1552    -3.3455    -0.0049 C.ar    
   6 C6             0.0738    -5.2913    -0.0270 C.ar    
   7 N7             1.2234    -4.6330    -0.0401 N.ar    
   8 C8             1.2495    -3.3127    -0.0335 C.ar    
   9 N9            -1.0934    -4.6646    -0.0125 N.ar    
  10 C10            1.1547     3.5252     0.0099 C.ar    
  11 C11           -1.2349     2.1133     0.0310 C.ar    
  12 C12           -0.0549     4.1972     0.0250 C.ar    
  13 N13            0.0926    -6.6794    -0.0346 N.am    
  14 C14            1.1812     2.1463     0.0023 C.ar    
  15 C15           -1.2457     3.4924     0.0385 C.ar    
  16 C16            1.2761    -7.3019    -0.0549 C.2     
  17 O17            1.4007    -8.6370    -0.1082 O.3     
  18 C18            0.2277    -9.4278     0.2294 C.3     
  19 C19           -0.9785    -8.8311    -0.5087 C.3     
  20 C20           -1.1809    -7.3943    -0.0140 C.3     
  21 C21           -0.7117    -8.8298    -2.0153 C.3     
  22 C22            0.4377   -10.8777    -0.2116 C.3     
  23 C23           -0.0132    -9.3758     1.7394 C.3     
  24 O24            2.2858    -6.6269    -0.0241 O.2     
  25 H25           -2.1103    -2.8415     0.0073 H       
  26 H26            2.1905    -2.7828    -0.0446 H       
  27 H27            2.0801     4.0818    -0.0008 H       
  28 H28           -2.1650     1.5646     0.0412 H       
  29 H29           -0.0696     5.2771     0.0310 H       
  30 H30            2.1259     1.6230    -0.0091 H       
  31 H31           -2.1860     4.0237     0.0499 H       
  32 H32           -1.8693    -9.4213    -0.2936 H       
  33 H33           -1.5755    -7.4135     1.0019 H       
  34 H34           -1.8889    -6.8831    -0.6663 H       
  35 H35           -0.5489    -9.8522    -2.3564 H       
  36 H36           -1.5702    -8.4055    -2.5359 H       
  37 H37            0.1740    -8.2308    -2.2270 H       
  38 H38            1.3094   -11.2895     0.2971 H       
  39 H39           -0.4435   -11.4663     0.0434 H       
  40 H40            0.5970   -10.9102    -1.2894 H       
  41 H41           -0.1741    -8.3424     2.0463 H       
  42 H42           -0.8929    -9.9697     1.9876 H       
  43 H43            0.8556    -9.7785     2.2600 H       
@<TRIPOS>BOND
   1    1    2 1
   2    1   14 ar
   3    1   11 ar
   4    2    3 3
   5    3    4 1
   6    4    5 ar
   7    4    8 ar
   8    5    9 ar
   9    5   25 1
  10    6    7 ar
  11    6   13 1
  12    6    9 ar
  13    7    8 ar
  14    8   26 1
  15   10   12 ar
  16   10   14 ar
  17   10   27 1
  18   11   15 ar
  19   11   28 1
  20   12   15 ar
  21   12   29 1
  22   13   16 am
  23   13   20 1
  24   14   30 1
  25   15   31 1
  26   16   17 1
  27   16   24 2
  28   17   18 1
  29   18   19 1
  30   18   22 1
  31   18   23 1
  32   19   20 1
  33   19   21 1
  34   19   32 1
  35   20   33 1
  36   20   34 1
  37   21   35 1
  38   21   36 1
  39   21   37 1
  40   22   38 1
  41   22   39 1
  42   22   40 1
  43   23   41 1
  44   23   42 1
  45   23   43 1

#	End of record

