#	Name: ASD03240078
#	Creating user name:	WinNT
#	Creation time:	15. 06. 2019 20:34

#	Modifying user name:	WinNT
#	Modification time:	15. 06. 2019 20:34

#	Program:	/corina/corina34_cracker 3.40 0067  02.08.2006

@<TRIPOS>MOLECULE
ASD03240078
  70   76    0    0    0
SMALL
NO_CHARGES


@<TRIPOS>ATOM
   1 C1            -0.0172     1.4136     0.0098 C.ar    
   2 C2             0.0021    -0.0041     0.0020 C.ar    
   3 C3             1.1901     2.1216     0.0021 C.ar    
   4 C4             2.3727     1.3934    -0.0131 C.ar    
   5 C5             2.3168    -0.0167    -0.0202 C.ar    
   6 N6             1.1625    -0.6585    -0.0127 N.ar    
   7 C7             3.5785    -0.7927    -0.0365 C.ar    
   8 C8             3.6808     2.0905    -0.0224 C.ar    
   9 C9             3.9248     3.1083    -0.9433 C.ar    
  10 C10            5.1444     3.7541    -0.9469 C.ar    
  11 C11            6.1237     3.3934    -0.0389 C.ar    
  12 C12            5.8873     2.3842     0.8772 C.ar    
  13 C13            4.6697     1.7349     0.8937 C.ar    
  14 C14            3.6638    -2.0048     0.6480 C.ar    
  15 C15            4.8416    -2.7234     0.6287 C.ar    
  16 C16            5.9365    -2.2438    -0.0678 C.ar    
  17 C17            5.8581    -1.0419    -0.7483 C.ar    
  18 C18            4.6840    -0.3170    -0.7412 C.ar    
  19 C19            7.2198    -3.0336    -0.0848 C.3     
  20 N20            7.2092    -3.9606    -1.2242 N.3     
  21 C21            8.5292    -4.5751    -1.4150 C.3     
  22 C22            8.5209    -5.4189    -2.6917 C.3     
  23 C23            7.4450    -6.5021    -2.5748 C.3     
  24 C24            6.0876    -5.8377    -2.3283 C.3     
  25 C25            6.1665    -4.9818    -1.0621 C.3     
  26 N26            7.3927    -7.2763    -3.8174 N.am    
  27 C27            7.6143    -8.6465    -3.9341 C.ar    
  28 C28            7.4662    -8.9656    -5.2853 C.ar    
  29 N29            7.1591    -7.7795    -5.9478 N.am    
  30 C30            7.1165    -6.7857    -5.0404 C.2     
  31 C31            7.9256    -9.6413    -3.0197 C.ar    
  32 C32            8.0877   -10.9437    -3.4495 C.ar    
  33 C33            7.9408   -11.2602    -4.7893 C.ar    
  34 C34            7.6309   -10.2761    -5.7074 C.ar    
  35 O35            6.8737    -5.6195    -5.2892 O.2     
  36 N36           -1.1692    -0.6582     0.0102 N.ar    
  37 C37           -2.3079     0.0051     0.0251 C.ar    
  38 N38           -2.3704     1.3316     0.0328 N.ar    
  39 C39           -1.2709     2.0730     0.0312 C.ar    
  40 N40           -1.3460     3.4486     0.0397 N.pl3   
  41 O41           -3.4654    -0.6970     0.0325 O.3     
  42 H42            1.2018     3.2015     0.0075 H       
  43 H43            3.1610     3.3906    -1.6528 H       
  44 H44            5.3347     4.5425    -1.6601 H       
  45 H45            7.0768     3.9013    -0.0457 H       
  46 H46            6.6558     2.1065     1.5834 H       
  47 H47            4.4861     0.9474     1.6096 H       
  48 H48            2.8098    -2.3801     1.1923 H       
  49 H49            4.9090    -3.6620     1.1587 H       
  50 H50            6.7164    -0.6722    -1.2897 H       
  51 H51            4.6239     0.6210    -1.2731 H       
  52 H52            8.0649    -2.3516    -0.1791 H       
  53 H53            7.3109    -3.5989     0.8427 H       
  54 H54            9.2845    -3.7939    -1.5009 H       
  55 H55            8.7605    -5.2114    -0.5607 H       
  56 H56            8.3033    -4.7808    -3.5482 H       
  57 H57            9.4960    -5.8874    -2.8247 H       
  58 H58            7.6833    -7.1638    -1.7420 H       
  59 H59            5.8317    -5.2062    -3.1791 H       
  60 H60            5.3243    -6.6055    -2.2017 H       
  61 H61            6.4089    -5.6162    -0.2095 H       
  62 H62            5.2058    -4.4960    -0.8917 H       
  63 H63            6.9994    -7.6860    -6.9000 H       
  64 H64            8.0413    -9.3982    -1.9738 H       
  65 H65            8.3305   -11.7187    -2.7375 H       
  66 H66            8.0692   -12.2809    -5.1179 H       
  67 H67            7.5167   -10.5268    -6.7516 H       
  68 H68           -2.2112     3.8871     0.0469 H       
  69 H69           -0.5336     3.9787     0.0384 H       
  70 H70           -3.7930    -0.9060     0.9180 H       
@<TRIPOS>BOND
   1    1    2 ar
   2    1    3 ar
   3    1   39 ar
   4    2   36 ar
   5    2    6 ar
   6    3    4 ar
   7    3   42 1
   8    4    5 ar
   9    4    8 1
  10    5    6 ar
  11    5    7 1
  12    7   14 ar
  13    7   18 ar
  14    8    9 ar
  15    8   13 ar
  16    9   10 ar
  17    9   43 1
  18   10   11 ar
  19   10   44 1
  20   11   12 ar
  21   11   45 1
  22   12   13 ar
  23   12   46 1
  24   13   47 1
  25   14   15 ar
  26   14   48 1
  27   15   16 ar
  28   15   49 1
  29   16   17 ar
  30   16   19 1
  31   17   18 ar
  32   17   50 1
  33   18   51 1
  34   19   20 1
  35   19   52 1
  36   19   53 1
  37   20   21 1
  38   20   25 1
  39   21   22 1
  40   21   54 1
  41   21   55 1
  42   22   23 1
  43   22   56 1
  44   22   57 1
  45   23   24 1
  46   23   26 1
  47   23   58 1
  48   24   25 1
  49   24   59 1
  50   24   60 1
  51   25   61 1
  52   25   62 1
  53   26   27 1
  54   26   30 am
  55   27   28 ar
  56   27   31 ar
  57   28   29 1
  58   28   34 ar
  59   29   30 am
  60   29   63 1
  61   30   35 2
  62   31   32 ar
  63   31   64 1
  64   32   33 ar
  65   32   65 1
  66   33   34 ar
  67   33   66 1
  68   34   67 1
  69   36   37 ar
  70   37   38 ar
  71   37   41 1
  72   38   39 ar
  73   39   40 1
  74   40   68 1
  75   40   69 1
  76   41   70 1

#	End of record

