#	Name: ASD05730063
#	Creating user name:	WinNT
#	Creation time:	15. 06. 2019 21:02

#	Modifying user name:	WinNT
#	Modification time:	15. 06. 2019 21:02

#	Program:	/corina/corina34_cracker 3.40 0067  02.08.2006

@<TRIPOS>MOLECULE
ASD05730063
  79   84    0    0    0
SMALL
NO_CHARGES


@<TRIPOS>ATOM
   1 C1             0.0288     1.5030     0.0329 C.3     
   2 C2             0.0367    -0.0039     0.0186 C.ar    
   3 C3            -0.9922    -0.7049     0.6205 C.ar    
   4 C4            -0.9880    -2.0859     0.6092 C.ar    
   5 C5             0.0510    -2.7707    -0.0080 C.ar    
   6 C6             1.0827    -2.0634    -0.6120 C.ar    
   7 C7             1.0699    -0.6825    -0.6013 C.ar    
   8 N8             0.0586    -4.1686    -0.0209 N.pl3   
   9 C9             0.5628    -4.8467    -1.1140 C.ar    
  10 N10            0.6625    -6.1659    -1.0558 N.ar    
  11 C11            1.1419    -6.8525    -2.0868 C.ar    
  12 C12            1.5420    -6.1483    -3.2432 C.ar    
  13 C13            1.4164    -4.7509    -3.2552 C.ar    
  14 N14            0.9246    -4.1518    -2.1869 N.ar    
  15 N15            1.2492    -8.2193    -2.0351 N.am    
  16 C16            1.7370    -8.9104    -3.0832 C.2     
  17 C17            2.1613    -8.2107    -4.2976 C.2     
  18 C18            2.0563    -6.8469    -4.3592 C.2     
  19 C19            0.8295    -8.9343    -0.8272 C.3     
  20 C20           -0.6495    -9.3082    -0.9440 C.3     
  21 O21            1.8259   -10.1236    -3.0205 O.2     
  22 C22            2.6981    -8.9718    -5.4500 C.ar    
  23 C23            1.9164    -9.1613    -6.5889 C.ar    
  24 C24            1.2823     2.0146     0.7482 C.3     
  25 C25            3.9895    -9.4966    -5.4020 C.ar    
  26 C26            4.4840   -10.2040    -6.4783 C.ar    
  27 C27            3.7016   -10.3933    -7.6037 C.ar    
  28 C28            2.4221    -9.8707    -7.6593 C.ar    
  29 C29           -1.0585   -10.1628     0.2596 C.3     
  30 C30            1.2992     3.5443     0.7061 C.3     
  31 N31            1.2919     3.9969    -0.6908 N.3     
  32 C32            0.0747     3.5577    -1.3850 C.3     
  33 C33            0.0212     2.0284    -1.4054 C.3     
  34 C34           -1.5000    -8.0343    -0.9643 C.3     
  35 C35           -2.9812    -8.4196    -1.0018 C.3     
  36 O36           -3.2877    -9.2387     0.1283 O.3     
  37 C37           -2.5568   -10.4658     0.1749 C.3     
  38 S38            0.2861    -8.4968    -6.6613 S.o2    
  39 C39           -0.6263    -9.3955    -5.3766 C.3     
  40 O40            0.4471    -7.1328    -6.2969 O.2     
  41 O41           -0.1832    -8.8597    -7.9525 O.2     
  42 C42           -2.0742    -8.9023    -5.3398 C.3     
  43 F43           -2.6753    -9.1276    -6.5829 F       
  44 F44           -2.7779    -9.5954    -4.3491 F       
  45 F45           -2.0933    -7.5329    -5.0540 F       
  46 H46           -0.8593     1.8577     0.5559 H       
  47 H47           -1.7998    -0.1718     1.1002 H       
  48 H48           -1.7915    -2.6328     1.0800 H       
  49 H49            1.8920    -2.5929    -1.0928 H       
  50 H50            1.8718    -0.1320    -1.0708 H       
  51 H51           -0.2902    -4.6625     0.7376 H       
  52 H52            1.7119    -4.1781    -4.1217 H       
  53 H53            2.3641    -6.3128    -5.2460 H       
  54 H54            1.4255    -9.8400    -0.7156 H       
  55 H55            0.9749    -8.2941     0.0429 H       
  56 H56           -0.8118    -9.8713    -1.8630 H       
  57 H57            1.2719     1.6791     1.7852 H       
  58 H58            2.1701     1.6269     0.2485 H       
  59 H59            4.6012    -9.3492    -4.5242 H       
  60 H60            5.4839   -10.6106    -6.4425 H       
  61 H61            4.0930   -10.9478    -8.4438 H       
  62 H62            1.8161   -10.0217    -8.5404 H       
  63 H63           -0.4969   -11.0969     0.2507 H       
  64 H64           -0.8484    -9.6191     1.1807 H       
  65 H65            0.4182     3.9314     1.2179 H       
  66 H66            2.1978     3.9113     1.2021 H       
  67 H67            1.3986     4.9987    -0.7469 H       
  68 H68           -0.8006     3.9448    -0.8634 H       
  69 H69            0.0839     3.9344    -2.4078 H       
  70 H70            0.8892     1.6409    -1.9389 H       
  71 H71           -0.8901     1.7028    -1.9069 H       
  72 H72           -1.2988    -7.4477    -0.0680 H       
  73 H73           -1.2541    -7.4463    -1.8485 H       
  74 H74           -3.5923    -7.5174    -0.9732 H       
  75 H75           -3.1902    -8.9715    -1.9182 H       
  76 H76           -2.7602   -11.0445    -0.7262 H       
  77 H77           -2.8621   -11.0378     1.0511 H       
  78 H78           -0.6115   -10.4624    -5.5994 H       
  79 H79           -0.1580    -9.2200    -4.4081 H       
@<TRIPOS>BOND
   1    1    2 1
   2    1   24 1
   3    1   33 1
   4    1   46 1
   5    2    3 ar
   6    2    7 ar
   7    3    4 ar
   8    3   47 1
   9    4    5 ar
  10    4   48 1
  11    5    6 ar
  12    5    8 1
  13    6    7 ar
  14    6   49 1
  15    7   50 1
  16    8    9 1
  17    8   51 1
  18    9   10 ar
  19    9   14 ar
  20   10   11 ar
  21   11   12 ar
  22   11   15 1
  23   12   13 ar
  24   12   18 1
  25   13   14 ar
  26   13   52 1
  27   15   16 am
  28   15   19 1
  29   16   17 1
  30   16   21 2
  31   17   18 2
  32   17   22 1
  33   18   53 1
  34   19   20 1
  35   19   54 1
  36   19   55 1
  37   20   29 1
  38   20   34 1
  39   20   56 1
  40   22   25 ar
  41   22   23 ar
  42   23   38 1
  43   23   28 ar
  44   24   30 1
  45   24   57 1
  46   24   58 1
  47   25   26 ar
  48   25   59 1
  49   26   27 ar
  50   26   60 1
  51   27   28 ar
  52   27   61 1
  53   28   62 1
  54   29   37 1
  55   29   63 1
  56   29   64 1
  57   30   31 1
  58   30   65 1
  59   30   66 1
  60   31   32 1
  61   31   67 1
  62   32   33 1
  63   32   68 1
  64   32   69 1
  65   33   70 1
  66   33   71 1
  67   34   35 1
  68   34   72 1
  69   34   73 1
  70   35   36 1
  71   35   74 1
  72   35   75 1
  73   36   37 1
  74   37   76 1
  75   37   77 1
  76   38   39 1
  77   38   40 2
  78   38   41 2
  79   39   42 1
  80   39   78 1
  81   39   79 1
  82   42   43 1
  83   42   44 1
  84   42   45 1

#	End of record

