#	Name: ASD03240562
#	Creating user name:	WinNT
#	Creation time:	15. 06. 2019 20:35

#	Modifying user name:	WinNT
#	Modification time:	15. 06. 2019 20:35

#	Program:	/corina/corina34_cracker 3.40 0067  02.08.2006

@<TRIPOS>MOLECULE
ASD03240562
  80   87    0    0    0
SMALL
NO_CHARGES


@<TRIPOS>ATOM
   1 C1            -0.2762     1.7847     0.3697 C.ar    
   2 C2            -0.3590     0.4110     0.2708 C.ar    
   3 N3             0.7230    -0.3244     0.0991 N.ar    
   4 C4             1.9313     0.2157     0.0145 C.ar    
   5 C5             2.0874     1.5983     0.0918 C.ar    
   6 C6             0.9668     2.3972     0.2790 C.ar    
   7 N7             3.0373    -0.6171    -0.1309 N.pl3   
   8 C8             4.0232    -0.6662     0.8508 C.ar    
   9 C9             4.7733     0.4728     1.1628 C.ar    
  10 C10            4.5453     1.7372     0.4293 C.2     
  11 N11            3.3473     2.2008    -0.0327 N.pl3   
  12 C12            4.2651    -1.8530     1.5297 C.ar    
  13 C13            5.2338    -1.9020     2.5139 C.ar    
  14 C14            5.9690    -0.7728     2.8312 C.ar    
  15 C15            5.7441     0.4135     2.1623 C.ar    
  16 N16            5.4880     2.6031     0.1166 N.2     
  17 C17            4.9505     3.6363    -0.5511 C.2     
  18 C18            3.5897     3.4050    -0.6615 C.2     
  19 C19            2.5959     4.2739    -1.3207 C.ar    
  20 C20            2.6111     5.6530    -1.0970 C.ar    
  21 C21            1.6388     3.7222    -2.1761 C.ar    
  22 C22            0.7133     4.5406    -2.7892 C.ar    
  23 C23            0.7314     5.9051    -2.5592 C.ar    
  24 C24            1.6794     6.4590    -1.7169 C.ar    
  25 C25            5.6813     4.8119    -1.0748 C.ar    
  26 C26           -0.2830     6.7926    -3.2332 C.3     
  27 N27           -1.4684     6.0570    -3.6933 N.3     
  28 C28           -0.6181     8.0628    -2.4337 C.3     
  29 C29           -0.6247     8.8117    -3.7769 C.3     
  30 C30            0.3217     7.7173    -4.3029 C.3     
  31 C31            6.7691     5.3294    -0.3687 C.ar    
  32 C32            7.4486     6.4228    -0.8561 C.ar    
  33 C33            7.0499     7.0145    -2.0557 C.ar    
  34 C34            5.9623     6.4978    -2.7615 C.ar    
  35 C35            5.2866     5.4002    -2.2780 C.ar    
  36 C36            7.7811     8.1916    -2.5797 C.ar    
  37 C37            7.3822     8.7832    -3.7794 C.ar    
  38 C38            8.8648     8.7120    -1.8704 C.ar    
  39 C39            9.5443     9.8057    -2.3562 C.ar    
  40 C40            9.1490    10.3953    -3.5599 C.ar    
  41 C41            8.0608     9.8767    -4.2669 C.ar    
  42 C42            9.8775    11.5691    -4.0820 C.2     
  43 O43           10.2048    12.4657    -3.3290 O.2     
  44 N44           10.1796    11.6463    -5.3932 N.am    
  45 C45           10.7874    12.8644    -5.9344 C.3     
  46 C46            9.9001    10.5120    -6.2773 C.3     
  47 H47           -1.1681     2.3770     0.5116 H       
  48 H48           -1.3240    -0.0696     0.3353 H       
  49 H49            1.0600     3.4707     0.3520 H       
  50 H50            3.1217    -1.1691    -0.9240 H       
  51 H51            3.6955    -2.7383     1.2887 H       
  52 H52            5.4189    -2.8276     3.0387 H       
  53 H53            6.7208    -0.8201     3.6050 H       
  54 H54            6.3188     1.2932     2.4118 H       
  55 H55            3.3504     6.0866    -0.4399 H       
  56 H56            1.6240     2.6576    -2.3571 H       
  57 H57           -0.0271     4.1156    -3.4507 H       
  58 H58            1.6876     7.5248    -1.5420 H       
  59 H59           -1.2041     5.2466    -4.2332 H       
  60 H60           -2.0570     5.7974    -2.9160 H       
  61 H61           -1.5933     8.0285    -1.9481 H       
  62 H62            0.1797     8.3788    -1.7616 H       
  63 H63           -1.5977     8.8186    -4.2681 H       
  64 H64           -0.1670     9.7997    -3.7282 H       
  65 H65            1.3769     7.9383    -4.1421 H       
  66 H66            0.1043     7.4062    -5.3247 H       
  67 H67            7.0771     4.8720     0.5599 H       
  68 H68            8.2899     6.8231    -0.3100 H       
  69 H69            5.6539     6.9561    -3.6895 H       
  70 H70            4.4451     5.0004    -2.8242 H       
  71 H71            6.5410     8.3824    -4.3254 H       
  72 H72            9.1700     8.2564    -0.9400 H       
  73 H73           10.3826    10.2085    -1.8072 H       
  74 H74            7.7547    10.3318    -5.1972 H       
  75 H75           11.8730    12.7858    -5.8757 H       
  76 H76           10.4879    12.9885    -6.9751 H       
  77 H77           10.4536    13.7253    -5.3551 H       
  78 H78            9.5442     9.6689    -5.6852 H       
  79 H79            9.1364    10.7955    -7.0016 H       
  80 H80           10.8117    10.2278    -6.8029 H       
@<TRIPOS>BOND
   1    1    2 ar
   2    1    6 ar
   3    1   47 1
   4    2    3 ar
   5    2   48 1
   6    3    4 ar
   7    4    5 ar
   8    4    7 1
   9    5    6 ar
  10    5   11 1
  11    6   49 1
  12    7    8 1
  13    7   50 1
  14    8    9 ar
  15    8   12 ar
  16    9   10 1
  17    9   15 ar
  18   10   11 1
  19   10   16 2
  20   11   18 1
  21   12   13 ar
  22   12   51 1
  23   13   14 ar
  24   13   52 1
  25   14   15 ar
  26   14   53 1
  27   15   54 1
  28   16   17 1
  29   17   18 2
  30   17   25 1
  31   18   19 1
  32   19   20 ar
  33   19   21 ar
  34   20   24 ar
  35   20   55 1
  36   21   22 ar
  37   21   56 1
  38   22   23 ar
  39   22   57 1
  40   23   24 ar
  41   23   26 1
  42   24   58 1
  43   25   31 ar
  44   25   35 ar
  45   26   27 1
  46   26   28 1
  47   26   30 1
  48   27   59 1
  49   27   60 1
  50   28   29 1
  51   28   61 1
  52   28   62 1
  53   29   30 1
  54   29   63 1
  55   29   64 1
  56   30   65 1
  57   30   66 1
  58   31   32 ar
  59   31   67 1
  60   32   33 ar
  61   32   68 1
  62   33   34 ar
  63   33   36 1
  64   34   35 ar
  65   34   69 1
  66   35   70 1
  67   36   37 ar
  68   36   38 ar
  69   37   41 ar
  70   37   71 1
  71   38   39 ar
  72   38   72 1
  73   39   40 ar
  74   39   73 1
  75   40   41 ar
  76   40   42 1
  77   41   74 1
  78   42   43 2
  79   42   44 am
  80   44   45 1
  81   44   46 1
  82   45   75 1
  83   45   76 1
  84   45   77 1
  85   46   78 1
  86   46   79 1
  87   46   80 1

#	End of record

