#	Name: ASD03330085
#	Creating user name:	WinNT
#	Creation time:	15. 06. 2019 20:36

#	Modifying user name:	WinNT
#	Modification time:	15. 06. 2019 20:36

#	Program:	/corina/corina34_cracker 3.40 0067  02.08.2006

@<TRIPOS>MOLECULE
ASD03330085
  73   77    0    0    0
SMALL
NO_CHARGES


@<TRIPOS>ATOM
   1 C1             1.6984     0.3591    -1.0574 C.2     
   2 C2             1.3233    -0.7114    -0.3027 C.2     
   3 C3             3.0474     0.6457    -1.0213 C.2     
   4 C4             3.7850    -0.2020    -0.2263 C.2     
   5 S5             2.7261    -1.4033     0.4989 S.3     
   6 C6             5.2429    -0.1161    -0.0158 C.ar    
   7 C7             5.7682    -0.1437     1.2799 C.ar    
   8 C8             6.1048    -0.0128    -1.1099 C.ar    
   9 C9             7.4666     0.0667    -0.9065 C.ar    
  10 C10            7.9807     0.0437     0.3793 C.ar    
  11 C11            7.1329    -0.0634     1.4691 C.ar    
  12 C12            3.6512     1.7701    -1.7751 C.ar    
  13 C13            3.4497     1.8789    -3.1504 C.ar    
  14 C14            4.4180     2.7263    -1.1106 C.ar    
  15 C15            4.9777     3.7709    -1.8176 C.ar    
  16 C16            4.7790     3.8705    -3.1830 C.ar    
  17 C17            4.0144     2.9279    -3.8468 C.ar    
  18 C18           -0.0482    -1.2120    -0.1773 C.2     
  19 O19           -0.9722    -0.4301    -0.0497 O.2     
  20 N20           -0.2865    -2.5383    -0.2033 N.am    
  21 C21           -1.6628    -3.0522    -0.1815 C.3     
  22 C22            0.8249    -3.4976    -0.2602 C.3     
  23 C23            0.6014    -4.4415    -1.4458 C.3     
  24 C24           -0.7808    -5.0874    -1.3250 C.3     
  25 C25           -1.8533    -4.0020    -1.3682 C.3     
  26 C26           -0.9906    -6.0425    -2.4716 C.ar    
  27 Cl27           4.7065    -0.2780     2.6467 Cl      
  28 Cl28           9.6963     0.1431     0.6257 Cl      
  29 C29           -0.8713    -5.8396    -0.0223 C.2     
  30 N30            0.0736    -6.7450     0.3000 N.am    
  31 O31           -1.7944    -5.6303     0.7360 O.2     
  32 S32            5.4968     5.2071    -4.0791 S.o2    
  33 C33            7.1238     4.5881    -4.5893 C.3     
  34 C34            7.8547     5.6709    -5.3857 C.3     
  35 C35           -1.3757    -7.7945    -4.5754 C.ar    
  36 C36           -2.3968    -7.5633    -3.6727 C.ar    
  37 C37           -2.2043    -6.6872    -2.6209 C.ar    
  38 C38           -0.1638    -7.1458    -4.4291 C.ar    
  39 C39            0.0287    -6.2697    -3.3773 C.ar    
  40 C40            9.2269     5.1487    -5.8160 C.3     
  41 O41            4.6483     5.3682    -5.2075 O.2     
  42 O42            5.6368     6.2408    -3.1141 O.2     
  43 O43            9.9095     6.1601    -6.5599 O.3     
  44 H44            0.9958     0.9351    -1.6414 H       
  45 H45            5.7058     0.0046    -2.1134 H       
  46 H46            8.1337     0.1466    -1.7520 H       
  47 H47            7.5403    -0.0807     2.4692 H       
  48 H48            2.8532     1.1434    -3.6697 H       
  49 H49            4.5735     2.6498    -0.0446 H       
  50 H50            5.5716     4.5123    -1.3039 H       
  51 H51            3.8627     3.0107    -4.9129 H       
  52 H52           -1.8368    -3.5913     0.7497 H       
  53 H53           -2.3642    -2.2217    -0.2619 H       
  54 H54            1.7644    -2.9609    -0.3924 H       
  55 H55            0.8579    -4.0738     0.6645 H       
  56 H56            0.6589    -3.8768    -2.3763 H       
  57 H57            1.3670    -5.2173    -1.4426 H       
  58 H58           -2.8394    -4.4623    -1.3058 H       
  59 H59           -1.7698    -3.4449    -2.3014 H       
  60 H60            0.8474    -6.8634    -0.2728 H       
  61 H61           -0.0202    -7.2783     1.1049 H       
  62 H62            7.7079     4.3302    -3.7058 H       
  63 H63            6.9967     3.7025    -5.2119 H       
  64 H64            7.2706     5.9287    -6.2692 H       
  65 H65            7.9818     6.5564    -4.7630 H       
  66 H66           -1.5260    -8.4790    -5.3971 H       
  67 H67           -3.3436    -8.0701    -3.7869 H       
  68 H68           -3.0020    -6.5066    -1.9157 H       
  69 H69            0.6340    -7.3264    -5.1344 H       
  70 H70            0.9753    -5.7624    -3.2634 H       
  71 H71            9.8110     4.8909    -4.9326 H       
  72 H72            9.0998     4.2632    -6.4387 H       
  73 H73           10.7886     5.8976    -6.8656 H       
@<TRIPOS>BOND
   1    1    2 2
   2    1    3 1
   3    1   44 1
   4    2   18 1
   5    2    5 1
   6    3    4 2
   7    3   12 1
   8    4    5 1
   9    4    6 1
  10    6    7 ar
  11    6    8 ar
  12    7   27 1
  13    7   11 ar
  14    8    9 ar
  15    8   45 1
  16    9   10 ar
  17    9   46 1
  18   10   11 ar
  19   10   28 1
  20   11   47 1
  21   12   13 ar
  22   12   14 ar
  23   13   17 ar
  24   13   48 1
  25   14   15 ar
  26   14   49 1
  27   15   16 ar
  28   15   50 1
  29   16   17 ar
  30   16   32 1
  31   17   51 1
  32   18   19 2
  33   18   20 am
  34   20   21 1
  35   20   22 1
  36   21   25 1
  37   21   52 1
  38   21   53 1
  39   22   23 1
  40   22   54 1
  41   22   55 1
  42   23   24 1
  43   23   56 1
  44   23   57 1
  45   24   25 1
  46   24   26 1
  47   24   29 1
  48   25   58 1
  49   25   59 1
  50   26   37 ar
  51   26   39 ar
  52   29   30 am
  53   29   31 2
  54   30   60 1
  55   30   61 1
  56   32   33 1
  57   32   41 2
  58   32   42 2
  59   33   34 1
  60   33   62 1
  61   33   63 1
  62   34   40 1
  63   34   64 1
  64   34   65 1
  65   35   36 ar
  66   35   38 ar
  67   35   66 1
  68   36   37 ar
  69   36   67 1
  70   37   68 1
  71   38   39 ar
  72   38   69 1
  73   39   70 1
  74   40   43 1
  75   40   71 1
  76   40   72 1
  77   43   73 1

#	End of record

