#	Name: ASD01870105
#	Creating user name:	WinNT
#	Creation time:	15. 06. 2019 19:38

#	Modifying user name:	WinNT
#	Modification time:	15. 06. 2019 19:38

#	Program:	/corina/corina34_cracker 3.40 0067  02.08.2006

@<TRIPOS>MOLECULE
ASD01870105
  39   40    0    0    0
SMALL
NO_CHARGES


@<TRIPOS>ATOM
   1 C1            -1.2449     1.3980    -1.1284 C.2     
   2 N2            -1.3084     0.0542    -1.2099 N.am    
   3 O3            -1.2312     2.0682    -2.1418 O.2     
   4 O4            -1.2020     1.9983     0.0768 O.3     
   5 C5            -1.3611    -0.5985    -2.5204 C.3     
   6 C6            -1.3249    -0.7539     0.0120 C.3     
   7 C7            -1.0446     3.3466     0.0884 C.ar    
   8 C8            -2.1545     4.1860    -0.0778 C.ar    
   9 C9            -1.9806     5.5716    -0.0642 C.ar    
  10 C10           -0.7204     6.1046     0.1123 C.ar    
  11 C11            0.3741     5.2706     0.2762 C.ar    
  12 C12            0.2138     3.8986     0.2703 C.ar    
  13 C13           -3.4993     3.6090    -0.2666 C.2     
  14 N14           -4.5641     4.4196    -0.4261 N.am    
  15 O15           -3.6469     2.4021    -0.2783 O.2     
  16 C16           -5.8273     3.8738    -0.6786 C.ar    
  17 C17           -6.7232     4.5433    -1.5042 C.ar    
  18 C18           -7.9697     4.0008    -1.7516 C.ar    
  19 C19           -8.3259     2.7935    -1.1785 C.ar    
  20 C20           -7.4368     2.1255    -0.3571 C.ar    
  21 C21           -6.1868     2.6594    -0.1100 C.ar    
  22 N22           -9.6624     2.2155    -1.4448 N.pl3   
  23 O23          -10.4469     2.8030    -2.1679 O.2     
  24 O24           -9.9775     1.1524    -0.9408 O.2     
  25 Cl25          -6.2768     6.0593    -2.2228 Cl      
  26 Cl26          -0.5048     7.8271     0.1285 Cl      
  27 H27           -0.3477    -0.8078    -2.8631 H       
  28 H28           -1.9174    -1.5323    -2.4392 H       
  29 H29           -1.8574     0.0591    -3.2341 H       
  30 H30           -2.3554    -0.9068     0.3326 H       
  31 H31           -0.8585    -1.7192    -0.1845 H       
  32 H32           -0.7730    -0.2368     0.7970 H       
  33 H33           -2.8311     6.2248    -0.1920 H       
  34 H34            1.3574     5.6957     0.4135 H       
  35 H35            1.0708     3.2550     0.4031 H       
  36 H36           -4.4547     5.3816    -0.3658 H       
  37 H37           -8.6666     4.5201    -2.3928 H       
  38 H38           -7.7184     1.1830     0.0888 H       
  39 H39           -5.4914     2.1345     0.5282 H       
@<TRIPOS>BOND
   1    1    2 am
   2    1    3 2
   3    1    4 1
   4    2    5 1
   5    2    6 1
   6    4    7 1
   7    5   27 1
   8    5   28 1
   9    5   29 1
  10    6   30 1
  11    6   31 1
  12    6   32 1
  13    7    8 ar
  14    7   12 ar
  15    8    9 ar
  16    8   13 1
  17    9   10 ar
  18    9   33 1
  19   10   11 ar
  20   10   26 1
  21   11   12 ar
  22   11   34 1
  23   12   35 1
  24   13   14 am
  25   13   15 2
  26   14   16 1
  27   14   36 1
  28   16   17 ar
  29   16   21 ar
  30   17   18 ar
  31   17   25 1
  32   18   19 ar
  33   18   37 1
  34   19   20 ar
  35   19   22 1
  36   20   21 ar
  37   20   38 1
  38   21   39 1
  39   22   23 2
  40   22   24 2

#	End of record

