#	Name: ASD01881961
#	Creating user name:	WinNT
#	Creation time:	15. 06. 2019 19:43

#	Modifying user name:	WinNT
#	Modification time:	15. 06. 2019 19:43

#	Program:	/corina/corina34_cracker 3.40 0067  02.08.2006

@<TRIPOS>MOLECULE
ASD01881961
  49   52    0    0    0
SMALL
NO_CHARGES


@<TRIPOS>ATOM
   1 N1            -0.0154     1.2839     0.0091 N.pl3   
   2 N2             0.0021    -0.0041     0.0020 N.2     
   3 N3             1.2033    -0.4649    -0.0119 N.2     
   4 C4             2.0741     0.5645    -0.0147 C.ar    
   5 C5             1.2843     1.7298    -0.0009 C.ar    
   6 C6             3.4670     0.6759    -0.0271 C.ar    
   7 C7             4.0484     1.9285    -0.0255 C.ar    
   8 C8             3.2560     3.0739    -0.0118 C.ar    
   9 C9             1.8924     2.9784    -0.0004 C.ar    
  10 O10            5.4033     2.0444    -0.0370 O.3     
  11 C11            5.9411     3.3683    -0.0346 C.3     
  12 C12            7.4694     3.2979    -0.0487 C.3     
  13 C13            8.0453     4.7154    -0.0462 C.3     
  14 N14            9.5127     4.6478    -0.0597 N.3     
  15 C15           10.1008     5.9789    -0.2968 C.3     
  16 C16           11.0450     6.2790     0.8864 C.3     
  17 C17           11.3743     4.8667     1.4376 C.3     
  18 C18           10.0309     4.1259     1.2229 C.3     
  19 C19           12.3153     6.9798     0.4006 C.3     
  20 F20           13.1512     7.2392     1.4919 F       
  21 C21           -1.2133     2.1272     0.0196 C.3     
  22 C22           -1.6228     2.4135     1.4657 C.3     
  23 C23           -2.7884     3.3784     1.6921 C.3     
  24 C24           -2.9777     1.8797     1.9352 C.3     
  25 Br25           4.5472    -0.8761    -0.0451 Br      
  26 H26            3.7236     4.0474    -0.0103 H       
  27 H27            1.2882     3.8735     0.0099 H       
  28 H28            5.5939     3.9031    -0.9187 H       
  29 H29            5.6098     3.8935     0.8612 H       
  30 H30            7.8167     2.7631     0.8353 H       
  31 H31            7.8008     2.7728    -0.9445 H       
  32 H32            7.6981     5.2502    -0.9302 H       
  33 H33            7.7140     5.2406     0.8496 H       
  34 H34           10.6650     5.9743    -1.2294 H       
  35 H35            9.3122     6.7301    -0.3416 H       
  36 H36           10.5375     6.8788     1.6419 H       
  37 H37           12.1739     4.3998     0.8625 H       
  38 H38           11.6311     4.9107     2.4960 H       
  39 H39            9.3381     4.3539     2.0329 H       
  40 H40           10.1969     3.0507     1.1557 H       
  41 H41           12.8350     6.3379    -0.3107 H       
  42 H42           12.0492     7.9189    -0.0846 H       
  43 H43           -1.0007     3.0667    -0.4906 H       
  44 H44           -2.0254     1.6113    -0.4926 H       
  45 H45           -0.8089     2.4286     2.1906 H       
  46 H46           -2.7415     4.0280     2.5661 H       
  47 H47           -3.2635     3.8093     0.8108 H       
  48 H48           -3.5773     1.3246     1.2137 H       
  49 H49           -3.0553     1.5434     2.9691 H       
@<TRIPOS>BOND
   1    1    2 1
   2    1    5 1
   3    1   21 1
   4    2    3 2
   5    3    4 1
   6    4    5 ar
   7    4    6 ar
   8    5    9 ar
   9    6    7 ar
  10    6   25 1
  11    7    8 ar
  12    7   10 1
  13    8    9 ar
  14    8   26 1
  15    9   27 1
  16   10   11 1
  17   11   12 1
  18   11   28 1
  19   11   29 1
  20   12   13 1
  21   12   30 1
  22   12   31 1
  23   13   14 1
  24   13   32 1
  25   13   33 1
  26   14   15 1
  27   14   18 1
  28   15   16 1
  29   15   34 1
  30   15   35 1
  31   16   17 1
  32   16   19 1
  33   16   36 1
  34   17   18 1
  35   17   37 1
  36   17   38 1
  37   18   39 1
  38   18   40 1
  39   19   20 1
  40   19   41 1
  41   19   42 1
  42   21   22 1
  43   21   43 1
  44   21   44 1
  45   22   23 1
  46   22   24 1
  47   22   45 1
  48   23   24 1
  49   23   46 1
  50   23   47 1
  51   24   48 1
  52   24   49 1

#	End of record

