#	Name: ASD02030564
#	Creating user name:	WinNT
#	Creation time:	15. 06. 2019 20:15

#	Modifying user name:	WinNT
#	Modification time:	15. 06. 2019 20:15

#	Program:	/corina/corina34_cracker 3.40 0067  02.08.2006

@<TRIPOS>MOLECULE
ASD02030564
  42   44    0    0    0
SMALL
NO_CHARGES


@<TRIPOS>ATOM
   1 S1            -0.0220     1.7682     0.0118 S.3     
   2 C2             0.0021    -0.0041     0.0020 C.2     
   3 N3             1.3150    -0.3971    -0.0126 N.am    
   4 C4             2.2811     0.5054    -0.0170 C.2     
   5 C5             1.7940     1.9357    -0.0047 C.3     
   6 C6             2.2555     2.6726    -1.2636 C.3     
   7 C7             1.7685     4.0980    -1.2182 C.2     
   8 N8             2.0575     4.9414    -2.2290 N.am    
   9 O9             1.1165     4.4862    -0.2721 O.2     
  10 C10            1.6095     6.2524    -2.1872 C.2     
  11 C11            0.6116     8.5021    -1.7015 C.2     
  12 S12            0.6962     6.9235    -0.9204 S.3     
  13 C13            1.8450     7.1841    -3.1532 C.2     
  14 C14            2.6100     6.9003    -4.3692 C.2     
  15 O15            3.9458     7.0864    -4.3845 O.3     
  16 O16            2.0407     6.4966    -5.3655 O.2     
  17 O17            3.4572     0.2106    -0.0298 O.2     
  18 N18           -1.0376    -0.7891     0.0081 N.2     
  19 S19            0.4225    11.2114    -1.8639 S.3     
  20 C20           -0.1289     9.6739    -1.0739 C.3     
  21 C21            1.2620     8.4943    -2.8628 C.2     
  22 C22            1.4455     9.6466    -3.8341 C.3     
  23 C23            0.4028    10.7369    -3.6203 C.3     
  24 C24            4.6393     6.7848    -5.6240 C.3     
  25 C25            6.1352     7.0550    -5.4502 C.3     
  26 H26            1.5363    -1.3415    -0.0195 H       
  27 H27            2.1399     2.4511     0.8913 H       
  28 H28            3.3443     2.6621    -1.3122 H       
  29 H29            1.8476     2.1772    -2.1447 H       
  30 H30            2.5789     4.6309    -2.9856 H       
  31 H31           -0.9185    -1.7518     0.0018 H       
  32 H32           -1.2007     9.5483    -1.2280 H       
  33 H33            0.0856     9.7149    -0.0061 H       
  34 H34            2.4390    10.0730    -3.6958 H       
  35 H35            1.3610     9.2691    -4.8531 H       
  36 H36           -0.5840    10.3588    -3.8875 H       
  37 H37            0.6446    11.6023    -4.2372 H       
  38 H38            4.4868     5.7363    -5.8798 H       
  39 H39            4.2467     7.4144    -6.4225 H       
  40 H40            6.6558     6.8286    -6.3807 H       
  41 H41            6.2877     8.1035    -5.1944 H       
  42 H42            6.5278     6.4254    -4.6518 H       
@<TRIPOS>BOND
   1    1    2 1
   2    1    5 1
   3    2    3 1
   4    2   18 2
   5    3    4 am
   6    3   26 1
   7    4    5 1
   8    4   17 2
   9    5    6 1
  10    5   27 1
  11    6    7 1
  12    6   28 1
  13    6   29 1
  14    7    8 am
  15    7    9 2
  16    8   10 1
  17    8   30 1
  18   10   13 2
  19   10   12 1
  20   11   12 1
  21   11   21 2
  22   11   20 1
  23   13   21 1
  24   13   14 1
  25   14   15 1
  26   14   16 2
  27   15   24 1
  28   18   31 1
  29   19   20 1
  30   19   23 1
  31   20   32 1
  32   20   33 1
  33   21   22 1
  34   22   23 1
  35   22   34 1
  36   22   35 1
  37   23   36 1
  38   23   37 1
  39   24   25 1
  40   24   38 1
  41   24   39 1
  42   25   40 1
  43   25   41 1
  44   25   42 1

#	End of record

