#	Name: ASD09800006
#	Creating user name:	WinNT
#	Creation time:	15. 06. 2019 21:24

#	Modifying user name:	WinNT
#	Modification time:	15. 06. 2019 21:24

#	Program:	/corina/corina34_cracker 3.40 0067  02.08.2006

@<TRIPOS>MOLECULE
ASD09800006
  57   61    0    0    0
SMALL
NO_CHARGES


@<TRIPOS>ATOM
   1 C1             1.1250     1.4160    -0.5224 C.ar    
   2 C2             1.2211     0.0405    -0.5584 C.ar    
   3 C3             2.4385    -0.5646    -0.8170 C.ar    
   4 C4             3.5665     0.2044    -1.0409 C.ar    
   5 C5             3.4842     1.5813    -1.0081 C.ar    
   6 C6             2.2594     2.1980    -0.7479 C.ar    
   7 C7             2.1637     3.6725    -0.7117 C.2     
   8 N8             0.9796     4.2650    -0.4602 N.am    
   9 O9             3.1531     4.3509    -0.9089 O.2     
  10 C10            0.9105     5.6501    -0.3109 C.ar    
  11 C11            2.0361     6.3642     0.0456 C.ar    
  12 C12            1.9874     7.7427     0.1990 C.ar    
  13 C13            0.8047     8.4373    -0.0026 C.ar    
  14 C14           -0.3673     7.7303    -0.3700 C.ar    
  15 C15           -0.3100     6.3256    -0.5300 C.ar    
  16 C16            0.7662     9.9043     0.1649 C.2     
  17 C17            1.1357    10.6175     1.3004 C.2     
  18 N18            0.9348    11.9532     0.9999 N.pl3   
  19 C19            0.4686    12.0119    -0.2564 C.2     
  20 N20            0.3736    10.8027    -0.7518 N.2     
  21 C21            0.1121    13.2791    -0.9899 C.3     
  22 C22            0.9750    13.4004    -2.2475 C.3     
  23 C23           -1.3650    13.2405    -1.3866 C.3     
  24 C24            1.6282    10.2781     2.5752 C.2     
  25 N25            1.8834    11.2439     3.4455 N.2     
  26 C26            1.6857    12.5257     3.1436 C.2     
  27 N27            1.2311    12.9069     1.9805 N.2     
  28 N28            1.8416     8.9573     2.9137 N.pl3   
  29 C29           -1.5812     8.3989    -0.5824 C.ar    
  30 C30           -2.6898     7.6895    -0.9348 C.ar    
  31 C31           -2.6354     6.3063    -1.0877 C.ar    
  32 C32           -1.4715     5.6260    -0.8939 C.ar    
  33 C33            4.8882    -0.4633    -1.3207 C.3     
  34 F34            4.7222    -1.8523    -1.3020 F       
  35 F35            5.3541    -0.0663    -2.5787 F       
  36 F36            5.8153    -0.0912    -0.3413 F       
  37 H37            0.1735     1.8871    -0.3245 H       
  38 H38            0.3444    -0.5656    -0.3841 H       
  39 H39            2.5084    -1.6420    -0.8438 H       
  40 H40            4.3656     2.1804    -1.1828 H       
  41 H41            0.1754     3.7282    -0.3830 H       
  42 H42            2.9680     5.8430     0.2080 H       
  43 H43            2.8811     8.2805     0.4791 H       
  44 H44            0.2919    14.1369    -0.3418 H       
  45 H45            0.7952    12.5427    -2.8956 H       
  46 H46            0.7171    14.3170    -2.7780 H       
  47 H47            2.0273    13.4280    -1.9649 H       
  48 H48           -1.6229    14.1571    -1.9171 H       
  49 H49           -1.5448    12.3827    -2.0347 H       
  50 H50           -1.9797    13.1541    -0.4906 H       
  51 H51            1.9085    13.2764     3.8874 H       
  52 H52            1.5396     8.2501     2.3224 H       
  53 H53            2.2936     8.7360     3.7430 H       
  54 H54           -1.6373     9.4712    -0.4668 H       
  55 H55           -3.6237     8.2070    -1.0974 H       
  56 H56           -3.5277     5.7660    -1.3677 H       
  57 H57           -1.4432     4.5533    -1.0158 H       
@<TRIPOS>BOND
   1    1    2 ar
   2    1    6 ar
   3    1   37 1
   4    2    3 ar
   5    2   38 1
   6    3    4 ar
   7    3   39 1
   8    4    5 ar
   9    4   33 1
  10    5    6 ar
  11    5   40 1
  12    6    7 1
  13    7    8 am
  14    7    9 2
  15    8   10 1
  16    8   41 1
  17   10   11 ar
  18   10   15 ar
  19   11   12 ar
  20   11   42 1
  21   12   13 ar
  22   12   43 1
  23   13   14 ar
  24   13   16 1
  25   14   15 ar
  26   14   29 ar
  27   15   32 ar
  28   16   17 2
  29   16   20 1
  30   17   18 1
  31   17   24 1
  32   18   19 1
  33   18   27 1
  34   19   20 2
  35   19   21 1
  36   21   22 1
  37   21   23 1
  38   21   44 1
  39   22   45 1
  40   22   46 1
  41   22   47 1
  42   23   48 1
  43   23   49 1
  44   23   50 1
  45   24   25 2
  46   24   28 1
  47   25   26 1
  48   26   27 2
  49   26   51 1
  50   28   52 1
  51   28   53 1
  52   29   30 ar
  53   29   54 1
  54   30   31 ar
  55   30   55 1
  56   31   32 ar
  57   31   56 1
  58   32   57 1
  59   33   34 1
  60   33   35 1
  61   33   36 1

#	End of record

