#	Name: ASD01916225
#	Creating user name:	WinNT
#	Creation time:	15. 06. 2019 20:06

#	Modifying user name:	WinNT
#	Modification time:	15. 06. 2019 20:06

#	Program:	/corina/corina34_cracker 3.40 0067  02.08.2006

@<TRIPOS>MOLECULE
ASD01916225
  45   48    0    0    0
SMALL
NO_CHARGES


@<TRIPOS>ATOM
   1 C1            -0.0325     0.9165    -0.0511 C.ar    
   2 C2             0.1136    -0.4733     0.1646 C.ar    
   3 C3            -1.0112    -1.2893     0.2899 C.ar    
   4 C4            -2.2586    -0.7445     0.2029 C.ar    
   5 C5            -2.4217     0.6325    -0.0123 C.ar    
   6 C6            -1.3112     1.4643    -0.1344 C.ar    
   7 N7             1.0790     1.6809    -0.1656 N.2     
   8 C8             2.2839     1.1823    -0.0859 C.2     
   9 N9             2.5128    -0.1436     0.1144 N.am    
  10 C10            1.4766    -1.0106     0.2487 C.2     
  11 C11            3.6110     1.9164    -0.1894 C.3     
  12 C12            4.6425     0.9302     0.3993 C.3     
  13 C13            3.9572    -0.4295     0.1525 C.3     
  14 C14           -3.7389     1.1870    -0.1025 C.1     
  15 C15           -4.8188     1.6416    -0.1765 C.1     
  16 C16           -6.1359     2.1962    -0.2667 C.ar    
  17 N17           -6.2902     3.5009    -0.4706 N.ar    
  18 C18           -7.4846     4.0485    -0.5594 C.ar    
  19 C19           -8.6293     3.2808    -0.4425 C.ar    
  20 C20           -8.5151     1.9137    -0.2290 C.ar    
  21 C21           -7.2499     1.3613    -0.1455 C.ar    
  22 O22            1.6723    -2.1979     0.4338 O.2     
  23 C23            5.9728     1.0168    -0.3515 C.3     
  24 C24            6.9217    -0.0663     0.1656 C.3     
  25 O25            5.7446     0.8226    -1.7488 O.3     
  26 C26            6.5984     2.3943    -0.1235 C.3     
  27 H27           -0.8944    -2.3502     0.4551 H       
  28 H28           -3.1278    -1.3781     0.3002 H       
  29 H29           -1.4400     2.5237    -0.2998 H       
  30 H30            3.8450     2.1351    -1.2313 H       
  31 H31            3.5848     2.8349     0.3968 H       
  32 H32            4.7860     1.1065     1.4653 H       
  33 H33            4.1836    -1.1188     0.9660 H       
  34 H34            4.2836    -0.8487    -0.7993 H       
  35 H35           -7.5715     5.1121    -0.7256 H       
  36 H36           -9.6035     3.7410    -0.5163 H       
  37 H37           -9.3950     1.2945    -0.1346 H       
  38 H38           -7.1247     0.3013     0.0196 H       
  39 H39            6.4760    -1.0476     0.0032 H       
  40 H40            7.8694    -0.0046    -0.3693 H       
  41 H41            7.0957     0.0818     1.2314 H       
  42 H42            5.3486    -0.0320    -1.9676 H       
  43 H43            6.6864     2.5807     0.9469 H       
  44 H44            7.5877     2.4241    -0.5800 H       
  45 H45            5.9668     3.1594    -0.5748 H       
@<TRIPOS>BOND
   1    1    2 ar
   2    1    7 1
   3    1    6 ar
   4    2    3 ar
   5    2   10 1
   6    3    4 ar
   7    3   27 1
   8    4    5 ar
   9    4   28 1
  10    5    6 ar
  11    5   14 1
  12    6   29 1
  13    7    8 2
  14    8    9 1
  15    8   11 1
  16    9   10 am
  17    9   13 1
  18   10   22 2
  19   11   12 1
  20   11   30 1
  21   11   31 1
  22   12   13 1
  23   12   23 1
  24   12   32 1
  25   13   33 1
  26   13   34 1
  27   14   15 3
  28   15   16 1
  29   16   17 ar
  30   16   21 ar
  31   17   18 ar
  32   18   19 ar
  33   18   35 1
  34   19   20 ar
  35   19   36 1
  36   20   21 ar
  37   20   37 1
  38   21   38 1
  39   23   24 1
  40   23   25 1
  41   23   26 1
  42   24   39 1
  43   24   40 1
  44   24   41 1
  45   25   42 1
  46   26   43 1
  47   26   44 1
  48   26   45 1

#	End of record

