#	Name: ASD01208985
#	Creating user name:	WinNT
#	Creation time:	15. 06. 2019 19:10

#	Modifying user name:	WinNT
#	Modification time:	15. 06. 2019 19:10

#	Program:	/corina/corina34_cracker 3.40 0067  02.08.2006

@<TRIPOS>MOLECULE
ASD01208985
  54   56    0    0    0
SMALL
NO_CHARGES


@<TRIPOS>ATOM
   1 C1            -2.1069     1.7018     0.4086 C.3     
   2 C2            -2.0404     0.2314     0.8327 C.3     
   3 C3            -1.2187    -0.5589    -0.1876 C.3     
   4 C4            -1.3162    -2.0531     0.1264 C.3     
   5 C5            -0.6326    -2.3361     1.4393 C.2     
   6 N6             0.6524    -1.9732     1.6220 N.am    
   7 C7             1.3165    -2.3302     2.7910 C.2     
   8 N8            -2.7257    -2.4424     0.2158 N.pl3   
   9 C9            -3.5096    -2.3405     1.3095 C.2     
  10 C10           -4.7380    -2.8032     0.9810 C.2     
  11 C11           -4.7037    -3.2015    -0.3593 C.2     
  12 N12           -3.4994    -2.9805    -0.8206 N.2     
  13 O13           -1.2389    -2.8904     2.3316 O.2     
  14 S14            2.9888    -1.9334     3.1775 S.3     
  15 C15            2.8276    -2.7719     4.7193 C.2     
  16 C16            1.5862    -3.2550     4.8043 C.2     
  17 N17            0.8014    -3.0039     3.7732 N.2     
  18 F18            3.7942    -2.9034     5.6539 F       
  19 C19           -1.3749     0.1381     2.2092 C.3     
  20 C20           -2.1595     0.9953     3.2059 C.3     
  21 O21           -2.2096     2.3439     2.7362 O.3     
  22 C22           -2.8633     2.4986     1.4749 C.3     
  23 S23           -6.1342    -2.8888     2.0525 S.o2    
  24 O24           -6.9230    -3.9424     1.5167 O.2     
  25 O25           -5.5719    -2.9837     3.3540 O.2     
  26 C26           -6.9702    -1.2937     1.8350 C.3     
  27 C27           -7.3830    -1.1297     0.3709 C.3     
  28 C28           -8.2143    -1.2445     2.7242 C.3     
  29 C29           -6.0184    -0.1616     2.2264 C.3     
  30 H30           -1.0965     2.0976     0.3067 H       
  31 H31           -2.6288     1.7826    -0.5449 H       
  32 H32           -3.0488    -0.1790     0.8852 H       
  33 H33           -1.6062    -0.3721    -1.1892 H       
  34 H34           -0.1764    -0.2442    -0.1368 H       
  35 H35           -0.8313    -2.6233    -0.6660 H       
  36 H36            1.1142    -1.4631     0.9383 H       
  37 H37           -3.2101    -1.9585     2.2743 H       
  38 H38           -5.5298    -3.6157    -0.9183 H       
  39 H39            1.2444    -3.8122     5.6640 H       
  40 H40           -1.3732    -0.8995     2.5434 H       
  41 H41           -0.3497     0.5022     2.1436 H       
  42 H42           -3.1731     0.6057     3.3014 H       
  43 H43           -1.6660     0.9668     4.1773 H       
  44 H44           -2.8767     3.5531     1.1992 H       
  45 H45           -3.8860     2.1287     1.5477 H       
  46 H46           -8.0611    -1.9363     0.0920 H       
  47 H47           -7.8853    -0.1712     0.2402 H       
  48 H48           -6.4967    -1.1648    -0.2626 H       
  49 H49           -7.9202    -1.3613     3.7672 H       
  50 H50           -8.7166    -0.2860     2.5935 H       
  51 H51           -8.8924    -2.0511     2.4453 H       
  52 H52           -5.1321    -0.1966     1.5929 H       
  53 H53           -6.5208     0.7969     2.0957 H       
  54 H54           -5.7244    -0.2784     3.2695 H       
@<TRIPOS>BOND
   1    1    2 1
   2    1   22 1
   3    1   30 1
   4    1   31 1
   5    2    3 1
   6    2   19 1
   7    2   32 1
   8    3    4 1
   9    3   33 1
  10    3   34 1
  11    4    5 1
  12    4    8 1
  13    4   35 1
  14    5    6 am
  15    5   13 2
  16    6    7 1
  17    6   36 1
  18    7   14 1
  19    7   17 2
  20    8    9 1
  21    8   12 1
  22    9   10 2
  23    9   37 1
  24   10   11 1
  25   10   23 1
  26   11   12 2
  27   11   38 1
  28   14   15 1
  29   15   16 2
  30   15   18 1
  31   16   17 1
  32   16   39 1
  33   19   20 1
  34   19   40 1
  35   19   41 1
  36   20   21 1
  37   20   42 1
  38   20   43 1
  39   21   22 1
  40   22   44 1
  41   22   45 1
  42   23   24 2
  43   23   25 2
  44   23   26 1
  45   26   27 1
  46   26   29 1
  47   26   28 1
  48   27   46 1
  49   27   47 1
  50   27   48 1
  51   28   49 1
  52   28   50 1
  53   28   51 1
  54   29   52 1
  55   29   53 1
  56   29   54 1

#	End of record

