#	Name: ASD01230919
#	Creating user name:	WinNT
#	Creation time:	15. 06. 2019 19:15

#	Modifying user name:	WinNT
#	Modification time:	15. 06. 2019 19:15

#	Program:	/corina/corina34_cracker 3.40 0067  02.08.2006

@<TRIPOS>MOLECULE
ASD01230919
  44   47    0    0    0
SMALL
NO_CHARGES


@<TRIPOS>ATOM
   1 S1             1.4622    -0.6020     1.2086 S.o2    
   2 N2             1.0412    -2.0492     0.5430 N.am    
   3 C3             1.8518    -2.8338    -0.0465 C.2     
   4 N4             3.1821    -2.5661    -0.2499 N.pl3   
   5 C5             3.7014    -1.2044    -0.2385 C.3     
   6 C6             3.2641    -0.5012     1.0478 C.3     
   7 C7             1.3710    -4.1689    -0.5914 C.3     
   8 N8             2.1134    -4.4293    -1.8316 N.3     
   9 C9             3.5534    -4.5637    -1.6307 C.3     
  10 C10            4.0682    -3.7144    -0.4739 C.3     
  11 C11           -0.1060    -4.1014    -0.8830 C.ar    
  12 C12           -1.0120    -4.6322     0.0166 C.ar    
  13 C13           -2.3664    -4.5717    -0.2482 C.ar    
  14 C14           -2.8174    -3.9771    -1.4180 C.ar    
  15 C15           -1.9061    -3.4448    -2.3189 C.ar    
  16 C16           -0.5531    -3.5037    -2.0469 C.ar    
  17 O17           -4.1492    -3.9167    -1.6811 O.3     
  18 C18           -5.0091    -4.3528    -0.7236 C.ar    
  19 C19           -5.4714    -3.4756     0.2470 C.ar    
  20 C20           -6.3459    -3.9214     1.2190 C.ar    
  21 C21           -6.7601    -5.2406     1.2255 C.ar    
  22 C22           -6.3009    -6.1168     0.2595 C.ar    
  23 C23           -5.4308    -5.6747    -0.7181 C.ar    
  24 O24            0.8353     0.3601     0.3716 O.2     
  25 O25            1.0928    -0.7282     2.5749 O.2     
  26 H26            4.7900    -1.2305    -0.2861 H       
  27 H27            3.3133    -0.6605    -1.0997 H       
  28 H28            3.5676     0.5451     1.0112 H       
  29 H29            3.7330    -0.9858     1.9042 H       
  30 H30            1.5709    -4.9585     0.1330 H       
  31 H31            1.7394    -5.2320    -2.3152 H       
  32 H32            3.7845    -5.6097    -1.4293 H       
  33 H33            4.0659    -4.2618    -2.5441 H       
  34 H34            5.0707    -3.3561    -0.7077 H       
  35 H35            4.1069    -4.3219     0.4303 H       
  36 H36           -0.6604    -5.0949     0.9270 H       
  37 H37           -3.0736    -4.9871     0.4544 H       
  38 H38           -2.2546    -2.9816    -3.2301 H       
  39 H39            0.1564    -3.0859    -2.7458 H       
  40 H40           -5.1476    -2.4453     0.2427 H       
  41 H41           -6.7061    -3.2390     1.9747 H       
  42 H42           -7.4433    -5.5873     1.9868 H       
  43 H43           -6.6257    -7.1467     0.2671 H       
  44 H44           -5.0756    -6.3585    -1.4749 H       
@<TRIPOS>BOND
   1    1    2 am
   2    1    6 1
   3    1   24 2
   4    1   25 2
   5    2    3 2
   6    3    4 1
   7    3    7 1
   8    4    5 1
   9    4   10 1
  10    5    6 1
  11    5   26 1
  12    5   27 1
  13    6   28 1
  14    6   29 1
  15    7    8 1
  16    7   11 1
  17    7   30 1
  18    8    9 1
  19    8   31 1
  20    9   10 1
  21    9   32 1
  22    9   33 1
  23   10   34 1
  24   10   35 1
  25   11   12 ar
  26   11   16 ar
  27   12   13 ar
  28   12   36 1
  29   13   14 ar
  30   13   37 1
  31   14   15 ar
  32   14   17 1
  33   15   16 ar
  34   15   38 1
  35   16   39 1
  36   17   18 1
  37   18   19 ar
  38   18   23 ar
  39   19   20 ar
  40   19   40 1
  41   20   21 ar
  42   20   41 1
  43   21   22 ar
  44   21   42 1
  45   22   23 ar
  46   22   43 1
  47   23   44 1

#	End of record

