#	Name: ASD09116484
#	Creating user name:	WinNT
#	Creation time:	15. 06. 2019 21:21

#	Modifying user name:	WinNT
#	Modification time:	15. 06. 2019 21:21

#	Program:	/corina/corina34_cracker 3.40 0067  02.08.2006

@<TRIPOS>MOLECULE
ASD09116484
  72   78    0    0    0
SMALL
NO_CHARGES


@<TRIPOS>ATOM
   1 N1            -0.0590     1.5274    -0.5283 N.2     
   2 N2            -0.0822     0.2485    -1.1076 N.pl3   
   3 C3             1.1947     1.9111    -0.4977 C.2     
   4 N4             1.9589     0.9469    -1.0242 N.2     
   5 C5             1.2029    -0.0634    -1.3971 C.2     
   6 N6             1.6431    -1.2360    -1.9811 N.pl3   
   7 C7            -1.2076    -0.5447    -1.3385 C.ar    
   8 N8             1.6572     3.1285     0.0026 N.pl3   
   9 C9             3.0304     3.3743     0.0834 C.ar    
  10 C10            3.5127     4.6728    -0.0237 C.ar    
  11 C11            3.9159     2.3215     0.2768 C.ar    
  12 C12            5.2724     2.5681     0.3566 C.ar    
  13 C13            5.7495     3.8612     0.2443 C.ar    
  14 C14            4.8703     4.9122     0.0570 C.ar    
  15 N15           -1.1866    -1.4624    -2.2935 N.ar    
  16 N16           -2.1985    -2.2114    -2.5533 N.ar    
  17 C17           -3.3307    -2.1072    -1.8761 C.ar    
  18 C18           -3.4383    -1.1804    -0.8353 C.ar    
  19 C19           -2.3542    -0.3745    -0.5584 C.ar    
  20 C20           -4.5159    -2.9312    -2.2088 C.ar    
  21 C21           -5.7519    -2.3023    -2.3669 C.ar    
  22 C22           -5.8380    -0.8051    -2.2512 C.3     
  23 C23           -5.7905    -0.3555    -0.7934 C.3     
  24 C24           -4.7033    -1.1077    -0.0306 C.3     
  25 C25           -4.4124    -4.3096    -2.3595 C.ar    
  26 C26           -5.5410    -5.0526    -2.6472 C.ar    
  27 C27           -6.7675    -4.4280    -2.7825 C.ar    
  28 C28           -6.8734    -3.0551    -2.6416 C.ar    
  29 C29            7.2303     4.1265     0.3324 C.3     
  30 C30            7.7118     4.7778    -0.9670 C.3     
  31 C31            9.2031     5.1002    -0.8483 C.3     
  32 N32            9.4201     6.0083     0.2851 N.3     
  33 C33            9.0091     5.3862     1.5502 C.3     
  34 C34            7.5120     5.0724     1.5031 C.3     
  35 C35           10.8201     6.4493     0.3457 C.3     
  36 C36           10.9561     7.5754     1.3725 C.3     
  37 C37           12.3644     8.0942     1.6696 C.3     
  38 C38           11.3887     8.9504     0.8597 C.3     
  39 H39            2.5891    -1.3682    -2.1503 H       
  40 H40            1.0062    -1.9268    -2.2219 H       
  41 H41            1.0255     3.8043     0.2944 H       
  42 H42            2.8267     5.4939    -0.1703 H       
  43 H43            3.5439     1.3115     0.3649 H       
  44 H44            5.9613     1.7501     0.5073 H       
  45 H45            5.2463     5.9209    -0.0303 H       
  46 H46           -2.3928     0.3662     0.2266 H       
  47 H47           -5.0029    -0.3572    -2.7899 H       
  48 H48           -6.7723    -0.4660    -2.6987 H       
  49 H49           -5.5821     0.7137    -0.7543 H       
  50 H50           -6.7561    -0.5495    -0.3265 H       
  51 H51           -5.0501    -2.1185     0.1841 H       
  52 H52           -4.5018    -0.5917     0.9081 H       
  53 H53           -3.4545    -4.7968    -2.2526 H       
  54 H54           -5.4652    -6.1232    -2.7671 H       
  55 H55           -7.6479    -5.0149    -2.9989 H       
  56 H56           -7.8343    -2.5738    -2.7475 H       
  57 H57            7.7602     3.1865     0.4868 H       
  58 H58            7.5529     4.0914    -1.7987 H       
  59 H59            7.1534     5.6975    -1.1417 H       
  60 H60            9.7622     4.1784    -0.6874 H       
  61 H61            9.5458     5.5770    -1.7666 H       
  62 H62            9.5691     4.4632     1.6998 H       
  63 H63            9.2109     6.0709     2.3739 H       
  64 H64            6.9505     5.9967     1.3673 H       
  65 H65            7.2104     4.5965     2.4362 H       
  66 H66           11.4525     5.6115     0.6394 H       
  67 H67           11.1295     6.8120    -0.6345 H       
  68 H68           10.2456     7.5466     2.1986 H       
  69 H69           12.5803     8.4072     2.6911 H       
  70 H70           13.1941     7.6333     1.1336 H       
  71 H71           11.5765     9.0528    -0.2091 H       
  72 H72           10.9628     9.8267     1.3484 H       
@<TRIPOS>BOND
   1    1    2 1
   2    1    3 2
   3    2    7 1
   4    2    5 1
   5    3    4 1
   6    3    8 1
   7    4    5 2
   8    5    6 1
   9    6   39 1
  10    6   40 1
  11    7   15 ar
  12    7   19 ar
  13    8    9 1
  14    8   41 1
  15    9   10 ar
  16    9   11 ar
  17   10   14 ar
  18   10   42 1
  19   11   12 ar
  20   11   43 1
  21   12   13 ar
  22   12   44 1
  23   13   14 ar
  24   13   29 1
  25   14   45 1
  26   15   16 ar
  27   16   17 ar
  28   17   18 ar
  29   17   20 1
  30   18   19 ar
  31   18   24 1
  32   19   46 1
  33   20   21 ar
  34   20   25 ar
  35   21   22 1
  36   21   28 ar
  37   22   23 1
  38   22   47 1
  39   22   48 1
  40   23   24 1
  41   23   49 1
  42   23   50 1
  43   24   51 1
  44   24   52 1
  45   25   26 ar
  46   25   53 1
  47   26   27 ar
  48   26   54 1
  49   27   28 ar
  50   27   55 1
  51   28   56 1
  52   29   30 1
  53   29   34 1
  54   29   57 1
  55   30   31 1
  56   30   58 1
  57   30   59 1
  58   31   32 1
  59   31   60 1
  60   31   61 1
  61   32   33 1
  62   32   35 1
  63   33   34 1
  64   33   62 1
  65   33   63 1
  66   34   64 1
  67   34   65 1
  68   35   36 1
  69   35   66 1
  70   35   67 1
  71   36   37 1
  72   36   38 1
  73   36   68 1
  74   37   38 1
  75   37   69 1
  76   37   70 1
  77   38   71 1
  78   38   72 1

#	End of record

