#	Name: ASD01882297
#	Creating user name:	WinNT
#	Creation time:	15. 06. 2019 19:44

#	Modifying user name:	WinNT
#	Modification time:	15. 06. 2019 19:44

#	Program:	/corina/corina34_cracker 3.40 0067  02.08.2006

@<TRIPOS>MOLECULE
ASD01882297
  43   44    0    0    0
SMALL
NO_CHARGES


@<TRIPOS>ATOM
   1 C1            -0.0167     1.3831     0.0096 C.ar    
   2 C2             0.0021    -0.0041     0.0020 C.ar    
   3 C3             1.2083    -0.6773    -0.0131 C.ar    
   4 C4             2.3962     0.0303    -0.0207 C.ar    
   5 C5             2.3801     1.4128    -0.0131 C.ar    
   6 C6             1.1765     2.0907     0.0021 C.ar    
   7 O7            -1.2021     2.0477     0.0189 O.3     
   8 N8             6.5733    -0.9143    -0.0923 N.3     
   9 C9             5.8295    -1.0586    -1.3280 C.3     
  10 C10            4.4934    -0.3175    -1.2934 C.3     
  11 C11            3.7133    -0.7081    -0.0367 C.3     
  12 C12            4.5349    -0.2999     1.1858 C.3     
  13 C13            5.8890    -1.0046     1.1810 C.3     
  14 C14            5.7077    -2.4654     1.6107 C.3     
  15 C15            6.7714    -0.3214     2.2501 C.3     
  16 C16            6.6701    -0.4479    -2.4708 C.3     
  17 C17            5.5945    -2.5326    -1.6715 C.3     
  18 C18            7.8224    -1.6874    -0.1060 C.3     
  19 H19           -0.9255    -0.5572     0.0083 H       
  20 H20            1.2235    -1.7571    -0.0187 H       
  21 H21            3.3093     1.9633    -0.0186 H       
  22 H22            1.1645     3.1706     0.0076 H       
  23 H23           -1.5410     2.2352     0.9049 H       
  24 H24            4.6741     0.7587    -1.2886 H       
  25 H25            3.9099    -0.5779    -2.1782 H       
  26 H26            3.5203    -1.7771    -0.0252 H       
  27 H27            4.6883     0.7818     1.1739 H       
  28 H28            3.9895    -0.5672     2.0940 H       
  29 H29            6.6843    -2.9398     1.7065 H       
  30 H30            5.1910    -2.5005     2.5699 H       
  31 H31            5.1188    -2.9942     0.8613 H       
  32 H32            6.9260     0.7232     1.9801 H       
  33 H33            6.2761    -0.3767     3.2195 H       
  34 H34            7.7345    -0.8289     2.3046 H       
  35 H35            7.6220    -0.9740    -2.5428 H       
  36 H36            6.1291    -0.5453    -3.4120 H       
  37 H37            6.8526     0.6067    -2.2641 H       
  38 H38            5.0280    -3.0066    -0.8700 H       
  39 H39            5.0342    -2.6036    -2.6037 H       
  40 H40            6.5543    -3.0366    -1.7852 H       
  41 H41            8.4540    -1.3427    -0.9247 H       
  42 H42            8.3458    -1.5488     0.8400 H       
  43 H43            7.5940    -2.7443    -0.2434 H       
@<TRIPOS>BOND
   1    1    2 ar
   2    1    6 ar
   3    1    7 1
   4    2    3 ar
   5    2   19 1
   6    3    4 ar
   7    3   20 1
   8    4    5 ar
   9    4   11 1
  10    5    6 ar
  11    5   21 1
  12    6   22 1
  13    7   23 1
  14    8    9 1
  15    8   13 1
  16    8   18 1
  17    9   10 1
  18    9   16 1
  19    9   17 1
  20   10   11 1
  21   10   24 1
  22   10   25 1
  23   11   12 1
  24   11   26 1
  25   12   13 1
  26   12   27 1
  27   12   28 1
  28   13   14 1
  29   13   15 1
  30   14   29 1
  31   14   30 1
  32   14   31 1
  33   15   32 1
  34   15   33 1
  35   15   34 1
  36   16   35 1
  37   16   36 1
  38   16   37 1
  39   17   38 1
  40   17   39 1
  41   17   40 1
  42   18   41 1
  43   18   42 1
  44   18   43 1

#	End of record

