#	Name: ASD05720283
#	Creating user name:	WinNT
#	Creation time:	15. 06. 2019 21:02

#	Modifying user name:	WinNT
#	Modification time:	15. 06. 2019 21:02

#	Program:	/corina/corina34_cracker 3.40 0067  02.08.2006

@<TRIPOS>MOLECULE
ASD05720283
  89   94    0    0    0
SMALL
NO_CHARGES


@<TRIPOS>ATOM
   1 C1             0.5116     1.0240     1.1162 C.2     
   2 N2             0.4120    -0.2388     0.6810 N.am    
   3 C3             1.6580    -0.6134    -0.0042 C.3     
   4 C4             2.5297     0.6535     0.0959 C.3     
   5 N5             1.6822     1.6074     0.8269 N.am    
   6 O6            -0.3815     1.5912     1.7151 O.2     
   7 C7            -1.6780    -3.1431     0.6624 C.2     
   8 N8            -0.6244    -2.3356     0.5059 N.2     
   9 C9            -0.6924    -1.0633     0.8501 C.2     
  10 C10           -1.8855    -0.5410     1.3897 C.2     
  11 C11           -2.9534    -1.3552     1.5494 C.2     
  12 N12           -2.8526    -2.6688     1.1836 N.pl3   
  13 N13           -3.7639    -3.7299     1.2270 N.2     
  14 C14           -3.1916    -4.8114     0.7582 C.2     
  15 C15           -1.8788    -4.5013     0.3822 C.2     
  16 C16           -0.8881    -5.4342    -0.1999 C.ar    
  17 C17           -0.6490    -6.6678     0.4083 C.ar    
  18 C18            0.2725    -7.5354    -0.1341 C.ar    
  19 C19            0.9673    -7.1817    -1.2907 C.ar    
  20 C20            0.7289    -5.9493    -1.8988 C.ar    
  21 C21           -0.1965    -5.0832    -1.3608 C.ar    
  22 N22            3.4789    -9.0342    -3.1449 N.pl3   
  23 N23            2.6756    -7.8979    -2.9559 N.2     
  24 C24            1.9604    -8.1162    -1.8737 C.2     
  25 N25            2.2780    -9.3231    -1.3855 N.2     
  26 C26            3.1871    -9.8804    -2.1409 C.2     
  27 C27            4.4412    -9.2569    -4.2269 C.3     
  28 O28            5.0548   -10.5370    -4.0627 O.3     
  29 C29            6.0157   -10.8547    -5.0715 C.3     
  30 C30            6.6048   -12.2397    -4.7967 C.3     
  31 Si31           7.8575   -12.6539    -6.1119 Si      
  32 C32            9.2208   -11.3843    -6.0929 C.3     
  33 C33            8.5748   -14.3404    -5.7773 C.3     
  34 C34            7.0297   -12.6512    -7.7809 C.3     
  35 C35            1.3821    -0.9611    -1.4684 C.3     
  36 C36            0.5227    -2.2250    -1.5392 C.3     
  37 C37            0.6402     0.1981    -2.1368 C.3     
  38 C38            2.0584     2.9779     1.1823 C.3     
  39 O39            3.0169     4.3002     4.4708 O.3     
  40 C40            2.2991     3.1025     4.7959 C.3     
  41 O41            1.8322     2.4975     3.5784 O.3     
  42 C42            2.7345     2.9816     2.5548 C.3     
  43 C43            3.0074     4.4290     3.0347 C.3     
  44 C44            3.2255     2.1312     5.5303 C.3     
  45 C45            1.1058     3.4451     5.6901 C.3     
  46 H46            2.1381    -1.4493     0.5046 H       
  47 H47            3.4426     0.4467     0.6544 H       
  48 H48            2.7659     1.0348    -0.8975 H       
  49 H49           -1.9460     0.4994     1.6732 H       
  50 H50           -3.8753    -0.9723     1.9615 H       
  51 H51           -3.6572    -5.7821     0.6724 H       
  52 H52           -1.1864    -6.9415     1.3042 H       
  53 H53            0.4576    -8.4898     0.3363 H       
  54 H54            1.2673    -5.6761    -2.7943 H       
  55 H55           -0.3839    -4.1307    -1.8341 H       
  56 H56            3.6286   -10.8538    -1.9856 H       
  57 H57            3.9242    -9.2222    -5.1859 H       
  58 H58            5.2062    -8.4810    -4.1983 H       
  59 H59            5.5313   -10.8531    -6.0480 H       
  60 H60            6.8133   -10.1119    -5.0604 H       
  61 H61            7.0892   -12.2413    -3.8202 H       
  62 H62            5.8072   -12.9825    -4.8078 H       
  63 H63            9.7052   -11.3859    -5.1164 H       
  64 H64            9.9537   -11.6266    -6.8624 H       
  65 H65            8.8011   -10.3976    -6.2887 H       
  66 H66            7.7772   -15.0832    -5.7884 H       
  67 H67            9.3078   -14.5827    -6.5468 H       
  68 H68            9.0592   -14.3420    -4.8008 H       
  69 H69            6.6100   -11.6645    -7.9767 H       
  70 H70            7.7626   -12.8936    -8.5504 H       
  71 H71            6.2320   -13.3940    -7.7920 H       
  72 H72            2.3262    -1.1343    -1.9849 H       
  73 H73           -0.4944    -1.9908    -1.2252 H       
  74 H74            0.5099    -2.5988    -2.5631 H       
  75 H75            0.9405    -2.9858    -0.8799 H       
  76 H76            0.4437    -0.0496    -3.1799 H       
  77 H77           -0.3039     0.3713    -1.6203 H       
  78 H78            1.2525     1.0985    -2.0864 H       
  79 H79            2.7492     3.3702     0.4359 H       
  80 H80            1.1659     3.6027     1.2153 H       
  81 H81            3.6541     2.3966     2.5367 H       
  82 H82            2.2094     5.0983     2.7133 H       
  83 H83            3.9743     4.7789     2.6729 H       
  84 H84            3.5664     2.5868     6.4600 H       
  85 H85            2.6846     1.2115     5.7533 H       
  86 H86            4.0856     1.9033     4.9007 H       
  87 H87            0.4566     4.1527     5.1744 H       
  88 H88            0.5472     2.5364     5.9145 H       
  89 H89            1.4635     3.8903     6.6185 H       
@<TRIPOS>BOND
   1    1    2 am
   2    1    5 am
   3    1    6 2
   4    2    3 1
   5    2    9 1
   6    3    4 1
   7    3   35 1
   8    3   46 1
   9    4    5 1
  10    4   47 1
  11    4   48 1
  12    5   38 1
  13    7    8 1
  14    7   12 1
  15    7   15 2
  16    8    9 2
  17    9   10 1
  18   10   11 2
  19   10   49 1
  20   11   12 1
  21   11   50 1
  22   12   13 1
  23   13   14 2
  24   14   15 1
  25   14   51 1
  26   15   16 1
  27   16   17 ar
  28   16   21 ar
  29   17   18 ar
  30   17   52 1
  31   18   19 ar
  32   18   53 1
  33   19   20 ar
  34   19   24 1
  35   20   21 ar
  36   20   54 1
  37   21   55 1
  38   22   23 1
  39   22   26 1
  40   22   27 1
  41   23   24 2
  42   24   25 1
  43   25   26 2
  44   26   56 1
  45   27   28 1
  46   27   57 1
  47   27   58 1
  48   28   29 1
  49   29   30 1
  50   29   59 1
  51   29   60 1
  52   30   31 1
  53   30   61 1
  54   30   62 1
  55   31   32 1
  56   31   33 1
  57   31   34 1
  58   32   63 1
  59   32   64 1
  60   32   65 1
  61   33   66 1
  62   33   67 1
  63   33   68 1
  64   34   69 1
  65   34   70 1
  66   34   71 1
  67   35   36 1
  68   35   37 1
  69   35   72 1
  70   36   73 1
  71   36   74 1
  72   36   75 1
  73   37   76 1
  74   37   77 1
  75   37   78 1
  76   38   42 1
  77   38   79 1
  78   38   80 1
  79   39   40 1
  80   39   43 1
  81   40   41 1
  82   40   44 1
  83   40   45 1
  84   41   42 1
  85   42   43 1
  86   42   81 1
  87   43   82 1
  88   43   83 1
  89   44   84 1
  90   44   85 1
  91   44   86 1
  92   45   87 1
  93   45   88 1
  94   45   89 1

#	End of record

