#	Name: ASD01910330
#	Creating user name:	WinNT
#	Creation time:	15. 06. 2019 19:55

#	Modifying user name:	WinNT
#	Modification time:	15. 06. 2019 19:55

#	Program:	/corina/corina34_cracker 3.40 0067  02.08.2006

@<TRIPOS>MOLECULE
ASD01910330
  41   43    0    0    0
SMALL
NO_CHARGES


@<TRIPOS>ATOM
   1 C1             0.0666     1.1382    -0.3332 C.ar    
   2 N2             0.0462    -0.0758     0.1836 N.ar    
   3 C3             1.1301    -0.6483     0.6721 C.ar    
   4 C4             2.3433     0.0070     0.6625 C.ar    
   5 C5             2.4127     1.2991     0.1232 C.ar    
   6 C6             1.2360     1.8670    -0.3843 C.ar    
   7 C7             3.6506     2.0184     0.0920 C.1     
   8 C8             4.6654     2.6082     0.0665 C.1     
   9 C9             5.9032     3.3275     0.0353 C.ar    
  10 C10            5.9503     4.6162    -0.5075 C.ar    
  11 C11            7.1313     5.3020    -0.5365 C.ar    
  12 C12            8.2925     4.7166    -0.0240 C.ar    
  13 C13            8.2463     3.4290     0.5181 C.ar    
  14 C14            7.0648     2.7443     0.5529 C.ar    
  15 C15            9.5689     5.4586    -0.0556 C.2     
  16 O16            9.6226     6.5944     0.3748 O.2     
  17 N17           10.6743     4.8768    -0.5617 N.am    
  18 C18           11.9308     5.6296    -0.6764 C.3     
  19 C19           12.4304     5.5379    -2.1217 C.3     
  20 C20           12.5402     4.0662    -2.5267 C.3     
  21 C21           11.1598     3.4099    -2.4503 C.3     
  22 C22           10.6473     3.4758    -1.0036 C.3     
  23 O23           13.0368     3.9761    -3.8637 O.3     
  24 H24           -0.8445     1.5651    -0.7256 H       
  25 H25            1.0660    -1.6439     1.0857 H       
  26 H26            3.2262    -0.4676     1.0644 H       
  27 H27            1.2451     2.8601    -0.8087 H       
  28 H28            5.0532     5.0685    -0.9038 H       
  29 H29            7.1679     6.2966    -0.9558 H       
  30 H30            9.1441     2.9771     0.9132 H       
  31 H31            7.0292     1.7496     0.9721 H       
  32 H32           11.7564     6.6735    -0.4156 H       
  33 H33           12.6753     5.2025    -0.0046 H       
  34 H34           11.7278     6.0456    -2.7824 H       
  35 H35           13.4096     6.0105    -2.1988 H       
  36 H36           13.2241     3.5534    -1.8503 H       
  37 H37           10.4692     3.9377    -3.1080 H       
  38 H38           11.2346     2.3679    -2.7614 H       
  39 H39           11.2881     2.8720    -0.3610 H       
  40 H40            9.6250     3.1000    -0.9606 H       
  41 H41           13.1323     3.0700    -4.1876 H       
@<TRIPOS>BOND
   1    1    2 ar
   2    1    6 ar
   3    1   24 1
   4    2    3 ar
   5    3    4 ar
   6    3   25 1
   7    4    5 ar
   8    4   26 1
   9    5    6 ar
  10    5    7 1
  11    6   27 1
  12    7    8 3
  13    8    9 1
  14    9   10 ar
  15    9   14 ar
  16   10   11 ar
  17   10   28 1
  18   11   12 ar
  19   11   29 1
  20   12   13 ar
  21   12   15 1
  22   13   14 ar
  23   13   30 1
  24   14   31 1
  25   15   16 2
  26   15   17 am
  27   17   18 1
  28   17   22 1
  29   18   19 1
  30   18   32 1
  31   18   33 1
  32   19   20 1
  33   19   34 1
  34   19   35 1
  35   20   21 1
  36   20   23 1
  37   20   36 1
  38   21   22 1
  39   21   37 1
  40   21   38 1
  41   22   39 1
  42   22   40 1
  43   23   41 1

#	End of record

