#	Name: ASD03540391
#	Creating user name:	WinNT
#	Creation time:	15. 06. 2019 20:43

#	Modifying user name:	WinNT
#	Modification time:	15. 06. 2019 20:43

#	Program:	/corina/corina34_cracker 3.40 0067  02.08.2006

@<TRIPOS>MOLECULE
ASD03540391
  58   62    0    0    0
SMALL
NO_CHARGES


@<TRIPOS>ATOM
   1 C1            -0.0159     1.3214     0.0093 C.2     
   2 C2             0.0021    -0.0041     0.0020 C.2     
   3 C3            -1.2926    -0.7753     0.0102 C.3     
   4 N4            -0.8200    -3.8459    -1.9694 N.am    
   5 C5            -0.8323    -2.9419    -0.9753 C.2     
   6 N6            -1.3176    -1.6997    -1.1260 N.am    
   7 C7            -1.8291    -1.2863    -2.3059 C.2     
   8 C8            -1.8415    -2.2377    -3.4324 C.ar    
   9 C9            -2.3507    -1.8884    -4.6767 C.ar    
  10 C10           -2.3378    -2.8282    -5.7066 C.ar    
  11 C11           -1.8158    -4.1081    -5.4823 C.ar    
  12 C12           -1.3151    -4.4513    -4.2583 C.ar    
  13 C13           -1.3196    -3.5282    -3.2203 C.ar    
  14 O14           -2.2679    -0.1598    -2.4355 O.2     
  15 O15           -0.3838    -3.2632     0.1080 O.2     
  16 C16           -0.2671    -5.1809    -1.7279 C.3     
  17 C17           -2.8755    -2.4736    -7.0351 C.2     
  18 N18           -2.8635    -3.3814    -8.0312 N.am    
  19 O19           -3.3292    -1.3627    -7.2305 O.2     
  20 C20           -3.3971    -3.0295    -9.3494 C.3     
  21 C21           -3.2666    -4.2109   -10.2759 C.ar    
  22 C22           -4.2912    -5.1354   -10.3635 C.ar    
  23 C23           -4.1734    -6.2220   -11.2143 C.ar    
  24 C24           -3.0210    -6.3801   -11.9808 C.ar    
  25 C25           -1.9989    -5.4501   -11.8880 C.ar    
  26 C26           -2.1255    -4.3649   -11.0403 C.ar    
  27 O27           -3.1469    -7.5151   -12.7285 O.3     
  28 C28           -4.5523    -7.8284   -12.7183 C.3     
  29 O29           -5.0209    -7.2580   -11.4820 O.3     
  30 C30            1.2540     2.0779     0.0012 C.ar    
  31 C31            1.2385     3.4731     0.0089 C.ar    
  32 C32            2.4274     4.1732     0.0012 C.ar    
  33 C33            3.6330     3.4949    -0.0140 C.ar    
  34 C34            3.6552     2.1117    -0.0221 C.ar    
  35 C35            2.4734     1.3997    -0.0083 C.ar    
  36 H36           -0.9584     1.8487     0.0166 H       
  37 H37            0.9446    -0.5313    -0.0098 H       
  38 H38           -1.3737    -1.3393     0.9394 H       
  39 H39           -2.1295    -0.0812    -0.0676 H       
  40 H40           -2.7524    -0.9000    -4.8444 H       
  41 H41           -1.8094    -4.8311    -6.2846 H       
  42 H42           -0.9155    -5.4417    -4.0975 H       
  43 H43            0.0799    -5.2494    -0.6968 H       
  44 H44           -1.0388    -5.9307    -1.9021 H       
  45 H45            0.5690    -5.3559    -2.4049 H       
  46 H46           -2.5015    -4.2677    -7.8753 H       
  47 H47           -4.4480    -2.7562    -9.2549 H       
  48 H48           -2.8375    -2.1864    -9.7547 H       
  49 H49           -5.1834    -5.0103    -9.7680 H       
  50 H50           -1.1043    -5.5702   -12.4812 H       
  51 H51           -1.3292    -3.6386   -10.9722 H       
  52 H52           -5.0540    -7.3655   -13.5681 H       
  53 H53           -4.7041    -8.9077   -12.7239 H       
  54 H54            0.2980     4.0038     0.0204 H       
  55 H55            2.4168     5.2532     0.0068 H       
  56 H56            4.5608     4.0476    -0.0199 H       
  57 H57            4.5997     1.5880    -0.0343 H       
  58 H58            2.4920     0.3199    -0.0146 H       
@<TRIPOS>BOND
   1    1    2 2
   2    1   30 1
   3    1   36 1
   4    2    3 1
   5    2   37 1
   6    3    6 1
   7    3   38 1
   8    3   39 1
   9    4    5 am
  10    4   13 1
  11    4   16 1
  12    5    6 am
  13    5   15 2
  14    6    7 am
  15    7    8 1
  16    7   14 2
  17    8    9 ar
  18    8   13 ar
  19    9   10 ar
  20    9   40 1
  21   10   11 ar
  22   10   17 1
  23   11   12 ar
  24   11   41 1
  25   12   13 ar
  26   12   42 1
  27   16   43 1
  28   16   44 1
  29   16   45 1
  30   17   18 am
  31   17   19 2
  32   18   20 1
  33   18   46 1
  34   20   21 1
  35   20   47 1
  36   20   48 1
  37   21   22 ar
  38   21   26 ar
  39   22   23 ar
  40   22   49 1
  41   23   24 ar
  42   23   29 1
  43   24   25 ar
  44   24   27 1
  45   25   26 ar
  46   25   50 1
  47   26   51 1
  48   27   28 1
  49   28   29 1
  50   28   52 1
  51   28   53 1
  52   30   31 ar
  53   30   35 ar
  54   31   32 ar
  55   31   54 1
  56   32   33 ar
  57   32   55 1
  58   33   34 ar
  59   33   56 1
  60   34   35 ar
  61   34   57 1
  62   35   58 1

#	End of record

