#	Name: ASD01915937
#	Creating user name:	WinNT
#	Creation time:	15. 06. 2019 20:06

#	Modifying user name:	WinNT
#	Modification time:	15. 06. 2019 20:06

#	Program:	/corina/corina34_cracker 3.40 0067  02.08.2006

@<TRIPOS>MOLECULE
ASD01915937
  44   47    0    0    0
SMALL
NO_CHARGES


@<TRIPOS>ATOM
   1 C1            -0.0165     1.3676     0.0096 C.2     
   2 C2             0.0021    -0.0041     0.0020 C.2     
   3 C3            -1.3057    -0.7789    -0.0019 C.3     
   4 C4            -2.3695     0.0449     0.7209 C.3     
   5 N5            -2.4035     1.4320     0.2718 N.am    
   6 C6            -1.2693     2.1314     0.0352 C.2     
   7 O7            -1.2874     3.3345    -0.1474 O.2     
   8 S8             1.6349     1.9480    -0.0031 S.3     
   9 C9             2.2074     0.3355    -0.0093 C.2     
  10 N10            1.2152    -0.4964    -0.0049 N.2     
  11 O11            4.1127    -0.1830    -1.3693 O.3     
  12 C12            5.4115    -0.5367    -1.5560 C.ar    
  13 C13            5.9162    -0.6736    -2.8409 C.ar    
  14 C14            6.2357    -0.7557    -0.4620 C.ar    
  15 C15            7.5575    -1.1157    -0.6550 C.ar    
  16 C16            8.0566    -1.2567    -1.9394 C.ar    
  17 C17            7.2369    -1.0334    -3.0296 C.ar    
  18 C18            3.6614    -0.0605    -0.0190 C.3     
  19 C19           -3.6423     2.0566     0.0803 C.ar    
  20 C20           -4.2702     1.9966    -1.1619 C.ar    
  21 C21           -5.4956     2.6164    -1.3455 C.ar    
  22 C22           -6.0926     3.2924    -0.2976 C.ar    
  23 C23           -5.4699     3.3525     0.9356 C.ar    
  24 C24           -4.2502     2.7321     1.1286 C.ar    
  25 O25           -3.6817     1.3317    -2.1917 O.3     
  26 C26           -4.3833     1.3117    -3.4365 C.3     
  27 F27            8.3617    -1.3294     0.4094 F       
  28 H28           -1.6199    -0.9598    -1.0299 H       
  29 H29           -1.1683    -1.7300     0.5126 H       
  30 H30           -3.3455    -0.4069     0.5442 H       
  31 H31           -2.1631     0.0259     1.7910 H       
  32 H32            5.2768    -0.4995    -3.6937 H       
  33 H33            5.8462    -0.6449     0.5392 H       
  34 H34            9.0887    -1.5370    -2.0892 H       
  35 H35            7.6281    -1.1442    -4.0301 H       
  36 H36            4.2489     0.7016     0.4929 H       
  37 H37            3.7811    -1.0158     0.4922 H       
  38 H38           -5.9845     2.5718    -2.3075 H       
  39 H39           -7.0476     3.7753    -0.4427 H       
  40 H40           -5.9400     3.8820     1.7511 H       
  41 H41           -3.7663     2.7803     2.0930 H       
  42 H42           -5.3547     0.8370    -3.2984 H       
  43 H43           -4.5250     2.3330    -3.7901 H       
  44 H44           -3.8054     0.7500    -4.1703 H       
@<TRIPOS>BOND
   1    1    2 2
   2    1    8 1
   3    1    6 1
   4    2    3 1
   5    2   10 1
   6    3    4 1
   7    3   28 1
   8    3   29 1
   9    4    5 1
  10    4   30 1
  11    4   31 1
  12    5    6 am
  13    5   19 1
  14    6    7 2
  15    8    9 1
  16    9   10 2
  17    9   18 1
  18   11   12 1
  19   11   18 1
  20   12   13 ar
  21   12   14 ar
  22   13   17 ar
  23   13   32 1
  24   14   15 ar
  25   14   33 1
  26   15   16 ar
  27   15   27 1
  28   16   17 ar
  29   16   34 1
  30   17   35 1
  31   18   36 1
  32   18   37 1
  33   19   20 ar
  34   19   24 ar
  35   20   21 ar
  36   20   25 1
  37   21   22 ar
  38   21   38 1
  39   22   23 ar
  40   22   39 1
  41   23   24 ar
  42   23   40 1
  43   24   41 1
  44   25   26 1
  45   26   42 1
  46   26   43 1
  47   26   44 1

#	End of record

