#	Name: ASD02560311
#	Creating user name:	WinNT
#	Creation time:	15. 06. 2019 20:25

#	Modifying user name:	WinNT
#	Modification time:	15. 06. 2019 20:25

#	Program:	/corina/corina34_cracker 3.40 0067  02.08.2006

@<TRIPOS>MOLECULE
ASD02560311
  34   36    0    0    0
SMALL
NO_CHARGES


@<TRIPOS>ATOM
   1 C1            -0.0092     1.3358     0.0867 C.2     
   2 O2            -0.0094     0.0036    -0.0960 O.3     
   3 C3            -1.2558    -0.4597     0.1049 C.2     
   4 N4            -2.0259     0.5550     0.4074 N.2     
   5 N5            -1.2250     1.7062     0.4013 N.2     
   6 N6            -1.6563    -1.7837     0.0079 N.pl3   
   7 N7             1.0903     2.1723    -0.0319 N.pl3   
   8 C8             0.9501     3.5468     0.1863 C.ar    
   9 C9             1.1277     4.0715     1.4610 C.ar    
  10 C10            0.9883     5.4302     1.6728 C.ar    
  11 C11            0.6726     6.2673     0.6183 C.ar    
  12 C12            0.4952     5.7489    -0.6514 C.ar    
  13 C13            0.6385     4.3920    -0.8720 C.ar    
  14 C14           -3.0095    -2.1150     0.1246 C.ar    
  15 C15           -3.9846    -1.2064    -0.2670 C.ar    
  16 C16           -5.3206    -1.5363    -0.1505 C.ar    
  17 C17           -5.6882    -2.7707     0.3557 C.ar    
  18 C18           -4.7189    -3.6777     0.7470 C.ar    
  19 C19           -3.3814    -3.3555     0.6270 C.ar    
  20 Cl20           1.5235     3.0215     2.7856 Cl      
  21 Cl21           0.4155     3.7424    -2.4664 Cl      
  22 Cl22          -7.3686    -3.1821     0.5007 Cl      
  23 C23            2.3988     1.6165    -0.3858 C.3     
  24 H24           -0.9976    -2.4801    -0.1410 H       
  25 H25            1.1258     5.8386     2.6631 H       
  26 H26            0.5640     7.3285     0.7869 H       
  27 H27            0.2483     6.4057    -1.4724 H       
  28 H28           -3.6983    -0.2428    -0.6618 H       
  29 H29           -6.0791    -0.8302    -0.4545 H       
  30 H30           -5.0087    -4.6400     1.1424 H       
  31 H31           -2.6254    -4.0637     0.9325 H       
  32 H32            2.5119     1.6153    -1.4699 H       
  33 H33            3.1849     2.2253     0.0609 H       
  34 H34            2.4731     0.5955    -0.0116 H       
@<TRIPOS>BOND
   1    1    2 1
   2    1    7 1
   3    1    5 2
   4    2    3 1
   5    3    4 2
   6    3    6 1
   7    4    5 1
   8    6   14 1
   9    6   24 1
  10    7    8 1
  11    7   23 1
  12    8    9 ar
  13    8   13 ar
  14    9   10 ar
  15    9   20 1
  16   10   11 ar
  17   10   25 1
  18   11   12 ar
  19   11   26 1
  20   12   13 ar
  21   12   27 1
  22   13   21 1
  23   14   15 ar
  24   14   19 ar
  25   15   16 ar
  26   15   28 1
  27   16   17 ar
  28   16   29 1
  29   17   18 ar
  30   17   22 1
  31   18   19 ar
  32   18   30 1
  33   19   31 1
  34   23   32 1
  35   23   33 1
  36   23   34 1

#	End of record

