#	Name: ASD02448068
#	Creating user name:	WinNT
#	Creation time:	15. 06. 2019 20:21

#	Modifying user name:	WinNT
#	Modification time:	15. 06. 2019 20:21

#	Program:	/corina/corina34_cracker 3.40 0067  02.08.2006

@<TRIPOS>MOLECULE
ASD02448068
  75   81    0    0    0
SMALL
NO_CHARGES


@<TRIPOS>ATOM
   1 C1            -0.0094     1.3526     0.0412 C.ar    
   2 C2             0.0091    -0.0275     0.0179 C.ar    
   3 C3             1.2205    -0.7057     0.0106 C.ar    
   4 C4             2.4137     0.0037     0.0272 C.ar    
   5 C5             2.3961     1.3838     0.0505 C.ar    
   6 C6             1.1843     2.0628     0.0574 C.ar    
   7 N7             1.1660     3.4606     0.0805 N.am    
   8 C8             0.1060     4.3574    -0.3982 C.3     
   9 C9             0.4731     5.7916    -0.1919 C.2     
  10 N10            1.6708     5.9884     0.3771 N.am    
  11 S11            2.3402     4.4918     0.6649 S.o2    
  12 O12           -0.2556     6.7058    -0.5145 O.2     
  13 O13            2.3947     4.3208     2.0745 O.2     
  14 O14            3.4653     4.3637    -0.1936 O.2     
  15 N15            1.2388    -2.1089    -0.0130 N.pl3   
  16 C16            0.6283    -2.9438     0.8838 C.2     
  17 C17            1.8608    -2.8909    -0.9336 C.2     
  18 N18            1.6574    -4.1426    -0.6302 N.2     
  19 C19            0.9018    -4.2134     0.4844 C.2     
  20 C20            0.4493    -5.4568     1.1554 C.ar    
  21 C21            0.8039    -6.7016     0.6353 C.ar    
  22 C22           -0.3265    -5.3852     2.3104 C.ar    
  23 C23           -0.7452    -6.5448     2.9310 C.ar    
  24 C24           -0.3957    -7.7780     2.4082 C.ar    
  25 C25            0.3798    -7.8556     1.2640 C.ar    
  26 Cl26          -0.9253    -9.2323     3.1945 Cl      
  27 Cl27           1.7758    -6.7998    -0.7998 Cl      
  28 C28            2.6557    -2.3929    -2.1131 C.3     
  29 C29            1.7741    -2.3594    -3.3349 C.ar    
  30 C30            0.9822    -1.2527    -3.5830 C.ar    
  31 C31            1.7640    -3.4331    -4.2069 C.ar    
  32 C32            0.9593    -3.4075    -5.3279 C.ar    
  33 C33            0.1555    -2.2973    -5.5801 C.ar    
  34 C34            0.1733    -1.2164    -4.7006 C.ar    
  35 C35           -0.7117    -2.2639    -6.7832 C.ar    
  36 C36           -1.5151    -1.1526    -7.0340 C.ar    
  37 C37           -0.7200    -3.3414    -7.6677 C.ar    
  38 C38           -1.5266    -3.3085    -8.7852 C.ar    
  39 C39           -2.3313    -2.2017    -9.0303 C.ar    
  40 C40           -2.3202    -1.1237    -8.1526 C.ar    
  41 N41           -3.1472    -2.1703   -10.1622 N.3     
  42 C42           -3.9107    -0.9136   -10.2275 C.3     
  43 C43           -4.5400    -0.7928   -11.6166 C.3     
  44 N44           -5.2481    -2.0243   -11.9540 N.am    
  45 C45           -5.0302    -3.1838   -11.3246 C.2     
  46 C46           -4.0612    -3.3202   -10.1844 C.3     
  47 O47           -5.6403    -4.1665   -11.6893 O.2     
  48 H48           -0.9518     1.8801     0.0424 H       
  49 H49           -0.9189    -0.5798     0.0058 H       
  50 H50            3.3558    -0.5242     0.0223 H       
  51 H51            3.3244     1.9356     0.0638 H       
  52 H52           -0.0584     4.1804    -1.4611 H       
  53 H53           -0.8149     4.1431     0.1441 H       
  54 H54            2.0726     6.8462     0.5859 H       
  55 H55            0.0427    -2.6502     1.7425 H       
  56 H56           -0.5997    -4.4238     2.7197 H       
  57 H57           -1.3463    -6.4900     3.8266 H       
  58 H58            0.6498    -8.8201     0.8600 H       
  59 H59            3.0255    -1.3891    -1.9043 H       
  60 H60            3.4984    -3.0608    -2.2914 H       
  61 H61            0.9968    -0.4156    -2.9008 H       
  62 H62            2.3874    -4.2929    -4.0105 H       
  63 H63            0.9528    -4.2460    -6.0085 H       
  64 H64           -0.4479    -0.3536    -4.8910 H       
  65 H65           -1.5070    -0.3151    -6.3522 H       
  66 H66           -0.0947    -4.2013    -7.4778 H       
  67 H67           -1.5331    -4.1429    -9.4708 H       
  68 H68           -2.9461    -0.2648    -8.3449 H       
  69 H69           -4.6948    -0.9226    -9.4704 H       
  70 H70           -3.2421    -0.0703   -10.0545 H       
  71 H71           -5.2416     0.0414   -11.6244 H       
  72 H72           -3.7576    -0.6120   -12.3536 H       
  73 H73           -5.9061    -2.0002   -12.6663 H       
  74 H74           -3.4852    -4.2374   -10.3068 H       
  75 H75           -4.6119    -3.3632    -9.2447 H       
@<TRIPOS>BOND
   1    1    2 ar
   2    1    6 ar
   3    1   48 1
   4    2    3 ar
   5    2   49 1
   6    3    4 ar
   7    3   15 1
   8    4    5 ar
   9    4   50 1
  10    5    6 ar
  11    5   51 1
  12    6    7 1
  13    7    8 1
  14    7   11 am
  15    8    9 1
  16    8   52 1
  17    8   53 1
  18    9   10 am
  19    9   12 2
  20   10   11 am
  21   10   54 1
  22   11   13 2
  23   11   14 2
  24   15   16 1
  25   15   17 1
  26   16   19 2
  27   16   55 1
  28   17   18 2
  29   17   28 1
  30   18   19 1
  31   19   20 1
  32   20   21 ar
  33   20   22 ar
  34   21   27 1
  35   21   25 ar
  36   22   23 ar
  37   22   56 1
  38   23   24 ar
  39   23   57 1
  40   24   25 ar
  41   24   26 1
  42   25   58 1
  43   28   29 1
  44   28   59 1
  45   28   60 1
  46   29   30 ar
  47   29   31 ar
  48   30   34 ar
  49   30   61 1
  50   31   32 ar
  51   31   62 1
  52   32   33 ar
  53   32   63 1
  54   33   34 ar
  55   33   35 1
  56   34   64 1
  57   35   36 ar
  58   35   37 ar
  59   36   40 ar
  60   36   65 1
  61   37   38 ar
  62   37   66 1
  63   38   39 ar
  64   38   67 1
  65   39   40 ar
  66   39   41 1
  67   40   68 1
  68   41   42 1
  69   41   46 1
  70   42   43 1
  71   42   69 1
  72   42   70 1
  73   43   44 1
  74   43   71 1
  75   43   72 1
  76   44   45 am
  77   44   73 1
  78   45   46 1
  79   45   47 2
  80   46   74 1
  81   46   75 1

#	End of record

