#	Name: ASD03092827
#	Creating user name:	WinNT
#	Creation time:	15. 06. 2019 20:33

#	Modifying user name:	WinNT
#	Modification time:	15. 06. 2019 20:33

#	Program:	/corina/corina34_cracker 3.40 0067  02.08.2006

@<TRIPOS>MOLECULE
ASD03092827
  53   55    0    0    0
SMALL
NO_CHARGES


@<TRIPOS>ATOM
   1 C1            -0.0187     1.5258     0.0104 C.3     
   2 C2             0.0021    -0.0041     0.0020 C.3     
   3 C3             0.7309    -0.5033     1.2229 C.2     
   4 O4             1.1895     0.2881     2.0225 O.2     
   5 C5             0.8807    -1.8895     1.4373 C.2     
   6 C6             0.4154    -2.8986     0.6081 C.2     
   7 C7             0.7748    -4.1109     1.1856 C.2     
   8 C8             0.4779    -5.4810     0.6327 C.3     
   9 C9             1.4532    -3.8350     2.3567 C.2     
  10 C10            2.0140    -4.8363     3.2861 C.ar    
  11 C11            3.3002    -4.6655     3.8053 C.ar    
  12 C12            3.8263    -5.5986     4.6731 C.ar    
  13 C13            3.0825    -6.7118     5.0364 C.ar    
  14 O14            3.6054    -7.6273     5.8917 O.3     
  15 C15            4.9262    -7.3804     6.3781 C.3     
  16 C16            1.7929    -6.8918     4.5221 C.ar    
  17 C17            1.2582    -5.9507     3.6511 C.ar    
  18 C18            0.9973    -8.0824     4.9099 C.ar    
  19 C19            1.5587    -9.3553     4.8291 C.ar    
  20 C20            0.8139   -10.4594     5.1912 C.ar    
  21 C21           -0.4875   -10.3042     5.6336 C.ar    
  22 C22           -1.0499    -9.0431     5.7153 C.ar    
  23 C23           -0.3123    -7.9315     5.3617 C.ar    
  24 S24           -1.4324   -11.7182     6.0941 S.o2    
  25 N25           -1.1736   -11.9759     7.7094 N.am    
  26 O26           -2.7981   -11.3491     5.9604 O.2     
  27 O27           -0.8562   -12.8248     5.4139 O.2     
  28 N28            1.5218    -2.4817     2.5066 N.pl3   
  29 C29            2.1645    -1.7751     3.6174 C.3     
  30 H30            1.0039     1.9031     0.0027 H       
  31 H31           -0.5459     1.8868    -0.8726 H       
  32 H32           -0.5289     1.8773     0.9072 H       
  33 H33           -1.0205    -0.3814     0.0098 H       
  34 H34            0.5123    -0.3556    -0.8948 H       
  35 H35           -0.1269    -2.7670    -0.3165 H       
  36 H36            1.2937    -5.7946    -0.0186 H       
  37 H37            0.3757    -6.1900     1.4542 H       
  38 H38           -0.4506    -5.4493     0.0625 H       
  39 H39            3.8836    -3.8006     3.5258 H       
  40 H40            4.8210    -5.4627     5.0713 H       
  41 H41            5.2223    -8.1858     7.0502 H       
  42 H42            5.6198    -7.3342     5.5386 H       
  43 H43            4.9438    -6.4329     6.9166 H       
  44 H44            0.2624    -6.0834     3.2547 H       
  45 H45            2.5746    -9.4776     4.4835 H       
  46 H46            1.2479   -11.4464     5.1286 H       
  47 H47           -2.0667    -8.9278     6.0607 H       
  48 H48           -0.7509    -6.9469     5.4305 H       
  49 H49           -0.5855   -11.3861     8.2064 H       
  50 H50           -1.6102   -12.7167     8.1584 H       
  51 H51            1.4389    -1.6157     4.4151 H       
  52 H52            2.9949    -2.3715     3.9954 H       
  53 H53            2.5379    -0.8125     3.2682 H       
@<TRIPOS>BOND
   1    1    2 1
   2    1   30 1
   3    1   31 1
   4    1   32 1
   5    2    3 1
   6    2   33 1
   7    2   34 1
   8    3    4 2
   9    3    5 1
  10    5   28 1
  11    5    6 2
  12    6    7 1
  13    6   35 1
  14    7    8 1
  15    7    9 2
  16    8   36 1
  17    8   37 1
  18    8   38 1
  19    9   10 1
  20    9   28 1
  21   10   17 ar
  22   10   11 ar
  23   11   12 ar
  24   11   39 1
  25   12   13 ar
  26   12   40 1
  27   13   14 1
  28   13   16 ar
  29   14   15 1
  30   15   41 1
  31   15   42 1
  32   15   43 1
  33   16   17 ar
  34   16   18 1
  35   17   44 1
  36   18   23 ar
  37   18   19 ar
  38   19   20 ar
  39   19   45 1
  40   20   21 ar
  41   20   46 1
  42   21   22 ar
  43   21   24 1
  44   22   23 ar
  45   22   47 1
  46   23   48 1
  47   24   25 am
  48   24   26 2
  49   24   27 2
  50   25   49 1
  51   25   50 1
  52   28   29 1
  53   29   51 1
  54   29   52 1
  55   29   53 1

#	End of record

