#	Name: ASD04230168
#	Creating user name:	WinNT
#	Creation time:	15. 06. 2019 20:48

#	Modifying user name:	WinNT
#	Modification time:	15. 06. 2019 20:48

#	Program:	/corina/corina34_cracker 3.40 0067  02.08.2006

@<TRIPOS>MOLECULE
ASD04230168
  38   41    0    0    0
SMALL
NO_CHARGES


@<TRIPOS>ATOM
   1 C1            -0.0187     1.4661     0.1013 C.2     
   2 C2             0.0012    -0.0046     0.0943 C.ar    
   3 C3            -1.2172    -0.7150     0.0562 C.ar    
   4 C4            -2.4503    -0.0226     0.0240 C.ar    
   5 C5            -2.4613     1.4378     0.0304 C.2     
   6 C6            -1.2591     2.1505     0.0753 C.2     
   7 C7             1.2025    -0.7068     0.1252 C.ar    
   8 C8             1.2023    -2.0923     0.1185 C.ar    
   9 C9             0.0227    -2.8032     0.0814 C.ar    
  10 C10           -1.2039    -2.1273     0.0496 C.ar    
  11 C11           -2.4326    -2.8297     0.0111 C.ar    
  12 C12           -3.6294    -2.1266    -0.0195 C.ar    
  13 C13           -3.6456    -0.7474    -0.0141 C.ar    
  14 O14            1.0271     2.0934     0.1345 O.2     
  15 N15           -3.6572     2.1137    -0.0012 N.pl3   
  16 N16           -2.4405    -4.2100     0.0036 N.3     
  17 C17           -1.8775    -4.7314    -1.2439 C.3     
  18 C18           -1.4880    -6.2027    -1.0645 C.3     
  19 S19           -2.9897    -7.1547    -0.6806 S.3     
  20 C20           -3.6983    -6.1995     0.6957 C.3     
  21 C21           -3.7834    -4.7286     0.2740 C.3     
  22 C22           -1.2814     3.5823     0.0811 C.1     
  23 N23           -1.2990     4.7181     0.0857 N.1     
  24 H24            2.1388    -0.1694     0.1541 H       
  25 H25            2.1423    -2.6237     0.1424 H       
  26 H26            0.0437    -3.8830     0.0764 H       
  27 H27           -4.5632    -2.6685    -0.0488 H       
  28 H28           -4.5894    -0.2229    -0.0381 H       
  29 H29           -4.4923     1.6209    -0.0277 H       
  30 H30           -3.6664     3.0837     0.0029 H       
  31 H31           -2.6185    -4.6472    -2.0388 H       
  32 H32           -0.9934    -4.1528    -1.5119 H       
  33 H33           -1.0417    -6.5783    -1.9853 H       
  34 H34           -0.7759    -6.2956    -0.2446 H       
  35 H35           -4.6963    -6.5730     0.9251 H       
  36 H36           -3.0587    -6.2923     1.5734 H       
  37 H37           -4.2414    -4.1481     1.0748 H       
  38 H38           -4.3921    -4.6447    -0.6263 H       
@<TRIPOS>BOND
   1    1    2 1
   2    1   14 2
   3    1    6 1
   4    2    3 ar
   5    2    7 ar
   6    3    4 ar
   7    3   10 ar
   8    4    5 1
   9    4   13 ar
  10    5    6 2
  11    5   15 1
  12    6   22 1
  13    7    8 ar
  14    7   24 1
  15    8    9 ar
  16    8   25 1
  17    9   10 ar
  18    9   26 1
  19   10   11 ar
  20   11   12 ar
  21   11   16 1
  22   12   13 ar
  23   12   27 1
  24   13   28 1
  25   15   29 1
  26   15   30 1
  27   16   17 1
  28   16   21 1
  29   17   18 1
  30   17   31 1
  31   17   32 1
  32   18   19 1
  33   18   33 1
  34   18   34 1
  35   19   20 1
  36   20   21 1
  37   20   35 1
  38   20   36 1
  39   21   37 1
  40   21   38 1
  41   22   23 3

#	End of record

