#	Name: ASD02030476
#	Creating user name:	WinNT
#	Creation time:	15. 06. 2019 20:15

#	Modifying user name:	WinNT
#	Modification time:	15. 06. 2019 20:15

#	Program:	/corina/corina34_cracker 3.40 0067  02.08.2006

@<TRIPOS>MOLECULE
ASD02030476
  46   46    0    0    0
SMALL
NO_CHARGES


@<TRIPOS>ATOM
   1 N1            -0.0718     1.3608    -0.0192 N.am    
   2 C2             0.0441    -0.1052     0.0015 C.3     
   3 C3             0.9991    -0.5339    -1.1176 C.3     
   4 N4             2.2688     0.1916    -0.9782 N.3     
   5 C5             2.0759     1.6390    -1.1388 C.3     
   6 C6             1.1650     2.1567    -0.0205 C.3     
   7 C7            -1.2794     1.9590    -0.0421 C.2     
   8 O8            -2.2877     1.2884    -0.1422 O.2     
   9 O9            -1.3683     3.2995     0.0458 O.3     
  10 C10            0.6002    -0.5577     1.3532 C.3     
  11 C11           -1.3321    -0.7329    -0.2286 C.3     
  12 C12           -2.7010     3.8752     0.0147 C.3     
  13 C13           -2.6030     5.3751     0.1237 C.ar    
  14 C14           -2.4945     6.1454    -1.0190 C.ar    
  15 C15           -2.4045     7.5212    -0.9190 C.ar    
  16 C16           -2.4235     8.1267     0.3236 C.ar    
  17 C17           -2.5329     7.3563     1.4662 C.ar    
  18 C18           -2.6272     5.9808     1.3660 C.ar    
  19 H19            1.1832    -1.6060    -1.0478 H       
  20 H20            0.5527    -0.3033    -2.0849 H       
  21 H21            2.7103    -0.0186    -0.0956 H       
  22 H22            3.0409     2.1428    -1.0844 H       
  23 H23            1.6145     1.8393    -2.1058 H       
  24 H24            0.9257     3.2050    -0.1991 H       
  25 H25            1.6690     2.0518     0.9403 H       
  26 H26           -0.0722    -0.2365     2.1486 H       
  27 H27            0.6851    -1.6444     1.3658 H       
  28 H28            1.5840    -0.1147     1.5080 H       
  29 H29           -1.7621    -0.3383    -1.1492 H       
  30 H30           -1.2288    -1.8149    -0.3105 H       
  31 H31           -1.9858    -0.4928     0.6099 H       
  32 H32           -3.1894     3.6102    -0.9230 H       
  33 H33           -3.2838     3.4875     0.8502 H       
  34 H34           -2.4797     5.6724    -1.9898 H       
  35 H35           -2.3191     8.1231    -1.8117 H       
  36 H36           -2.3525     9.2015     0.4017 H       
  37 H37           -2.5473     7.8293     2.4370 H       
  38 H38           -2.7163     5.3793     2.2585 H       
  39 C39            9.2124    16.1897     8.5838 C.2     
  40 C40            9.2328    14.6829     8.5755 C.3     
  41 O41           10.2504    16.8080     8.5772 O.2     
  42 O42            8.0409    16.8450     8.5929 O.3     
  43 F43           10.5579    14.2346     8.5604 F       
  44 F44            8.5906    14.2015     9.7214 F       
  45 F45            8.5688    14.2138     7.4370 F       
  46 H46            8.0784    17.8113     8.5980 H       
@<TRIPOS>BOND
   1    1    2 1
   2    1    6 1
   3    1    7 am
   4    2    3 1
   5    2   10 1
   6    2   11 1
   7    3    4 1
   8    3   19 1
   9    3   20 1
  10    4    5 1
  11    4   21 1
  12    5    6 1
  13    5   22 1
  14    5   23 1
  15    6   24 1
  16    6   25 1
  17    7    8 2
  18    7    9 1
  19    9   12 1
  20   10   26 1
  21   10   27 1
  22   10   28 1
  23   11   29 1
  24   11   30 1
  25   11   31 1
  26   12   13 1
  27   12   32 1
  28   12   33 1
  29   13   14 ar
  30   13   18 ar
  31   14   15 ar
  32   14   34 1
  33   15   16 ar
  34   15   35 1
  35   16   17 ar
  36   16   36 1
  37   17   18 ar
  38   17   37 1
  39   18   38 1
  40   39   40 1
  41   39   41 2
  42   39   42 1
  43   40   43 1
  44   40   44 1
  45   40   45 1
  46   42   46 1

#	End of record

