#	Name: ASD00069182
#	Creating user name:	WinNT
#	Creation time:	15. 06. 2019 18:29

#	Modifying user name:	WinNT
#	Modification time:	15. 06. 2019 18:29

#	Program:	/corina/corina34_cracker 3.40 0067  02.08.2006

@<TRIPOS>MOLECULE
ASD00069182
  66   71    0    0    0
SMALL
NO_CHARGES


@<TRIPOS>ATOM
   1 C1            -0.0984     1.2004    -0.5447 C.2     
   2 N2             0.0005    -0.0037    -0.0267 N.2     
   3 C3             1.2449    -0.4597    -0.2173 C.2     
   4 C4             1.9508     0.5034    -0.8832 C.2     
   5 N5             1.1095     1.5413    -1.0875 N.pl3   
   6 C6            -1.3103     2.0399    -0.5460 C.2     
   7 O7            -1.2854     3.1431    -1.0575 O.2     
   8 N8            -2.4459     1.5850     0.0197 N.am    
   9 C9             1.4725    -3.9016     1.2827 C.ar    
  10 C10            0.9472    -2.6860     0.8958 C.ar    
  11 C11            1.7663    -1.7781     0.2185 C.ar    
  12 C12            3.0905    -2.1469    -0.0375 C.ar    
  13 C13            3.5345    -3.3825     0.3846 C.ar    
  14 N14            2.7282    -4.2107     1.0214 N.ar    
  15 C15            0.6020    -4.8869     2.0192 C.3     
  16 C16           -3.5614     2.4251     0.1244 C.ar    
  17 C17           -4.8472     1.8960     0.0205 C.ar    
  18 C18           -5.9488     2.7346     0.1258 C.ar    
  19 C19           -5.7677     4.0911     0.3331 C.ar    
  20 C20           -4.4919     4.6143     0.4355 C.ar    
  21 C21           -3.3902     3.7852     0.3375 C.ar    
  22 N22           -5.0269     0.5228    -0.1898 N.3     
  23 C23           -5.7962    -0.0811     0.9057 C.3     
  24 C24           -5.8482    -1.5990     0.7179 C.3     
  25 C25           -6.5035    -1.9198    -0.6282 C.3     
  26 C26           -5.7110    -1.2393    -1.7478 C.3     
  27 C27           -5.6630     0.2682    -1.4886 C.3     
  28 C28           -6.5035    -3.4110    -0.8458 C.2     
  29 O29           -5.5766    -4.0823    -0.4445 O.2     
  30 C30           -9.5910    -4.4868    -2.6469 C.3     
  31 O31           -8.8510    -5.0389    -3.7720 O.3     
  32 C32           -7.6494    -5.6340    -3.2440 C.3     
  33 C33           -7.7476    -5.4621    -1.6956 C.3     
  34 N34           -7.5335    -3.9986    -1.4863 N.am    
  35 C35           -8.6857    -3.3276    -2.1267 C.3     
  36 C36           -9.3082    -5.5611    -1.5364 C.3     
  37 F37           -7.1968     2.2269     0.0254 F       
  38 H38            2.9853     0.4458    -1.1881 H       
  39 H39            1.3230     2.3742    -1.5365 H       
  40 H40           -2.4905     0.6756     0.3544 H       
  41 H41           -0.0817    -2.4396     1.1126 H       
  42 H42            3.7557    -1.4743    -0.5585 H       
  43 H43            4.5555    -3.6764     0.1911 H       
  44 H44            0.1001    -5.5357     1.3014 H       
  45 H45            1.2192    -5.4904     2.6848 H       
  46 H46           -0.1429    -4.3474     2.6041 H       
  47 H47           -6.6251     4.7427     0.4149 H       
  48 H48           -4.3558     5.6735     0.5969 H       
  49 H49           -2.3954     4.1971     0.4228 H       
  50 H50           -5.3172     0.1510     1.8569 H       
  51 H51           -6.8096     0.3202     0.9021 H       
  52 H52           -4.8359    -2.0027     0.7353 H       
  53 H53           -6.4324    -2.0454     1.5226 H       
  54 H54           -7.5290    -1.5503    -0.6314 H       
  55 H55           -4.6965    -1.6374    -1.7693 H       
  56 H56           -6.1972    -1.4287    -2.7048 H       
  57 H57           -6.6770     0.6679    -1.4810 H       
  58 H58           -5.0872     0.7540    -2.2764 H       
  59 H59          -10.6338    -4.2335    -2.8378 H       
  60 H60           -7.6060    -6.6916    -3.5043 H       
  61 H61           -6.7711    -5.1140    -3.6265 H       
  62 H62           -7.1365    -6.1326    -1.0914 H       
  63 H63           -8.3490    -2.7079    -2.9578 H       
  64 H64           -9.2255    -2.7236    -1.3973 H       
  65 H65           -9.6475    -5.2410    -0.5513 H       
  66 H66           -9.6923    -6.5459    -1.8024 H       
@<TRIPOS>BOND
   1    1    2 2
   2    1    5 1
   3    1    6 1
   4    2    3 1
   5    3    4 2
   6    3   11 1
   7    4    5 1
   8    4   38 1
   9    5   39 1
  10    6    7 2
  11    6    8 am
  12    8   16 1
  13    8   40 1
  14    9   10 ar
  15    9   14 ar
  16    9   15 1
  17   10   11 ar
  18   10   41 1
  19   11   12 ar
  20   12   13 ar
  21   12   42 1
  22   13   14 ar
  23   13   43 1
  24   15   44 1
  25   15   45 1
  26   15   46 1
  27   16   17 ar
  28   16   21 ar
  29   17   18 ar
  30   17   22 1
  31   18   19 ar
  32   18   37 1
  33   19   20 ar
  34   19   47 1
  35   20   21 ar
  36   20   48 1
  37   21   49 1
  38   22   23 1
  39   22   27 1
  40   23   24 1
  41   23   50 1
  42   23   51 1
  43   24   25 1
  44   24   52 1
  45   24   53 1
  46   25   26 1
  47   25   28 1
  48   25   54 1
  49   26   27 1
  50   26   55 1
  51   26   56 1
  52   27   57 1
  53   27   58 1
  54   28   29 2
  55   28   34 am
  56   30   31 1
  57   30   35 1
  58   30   36 1
  59   30   59 1
  60   31   32 1
  61   32   33 1
  62   32   60 1
  63   32   61 1
  64   33   34 1
  65   33   36 1
  66   33   62 1
  67   34   35 1
  68   35   63 1
  69   35   64 1
  70   36   65 1
  71   36   66 1

#	End of record

