#	Name: ASD01940429
#	Creating user name:	WinNT
#	Creation time:	15. 06. 2019 20:12

#	Modifying user name:	WinNT
#	Modification time:	15. 06. 2019 20:12

#	Program:	/corina/corina34_cracker 3.40 0067  02.08.2006

@<TRIPOS>MOLECULE
ASD01940429
  26   26    0    0    0
SMALL
NO_CHARGES


@<TRIPOS>ATOM
   1 Si1           -0.0232     1.8587     0.0123 Si      
   2 C2             0.0021    -0.0041     0.0020 C.3     
   3 C3             1.7246     2.5036    -0.0010 C.3     
   4 C4            -0.9242     2.4759    -1.4970 C.3     
   5 C5            -0.8975     2.4612     1.5492 C.ar    
   6 C6            -0.1785     2.6948     2.7063 C.ar    
   7 C7            -0.8268     3.1413     3.8451 C.ar    
   8 C8            -2.1951     3.3532     3.8235 C.ar    
   9 C9            -2.9118     3.1189     2.6656 C.ar    
  10 C10           -2.2624     2.6784     1.5272 C.ar    
  11 N11           -2.8897     3.8301     5.0404 N.pl3   
  12 O12           -4.0932     4.0164     5.0211 O.2     
  13 O13           -2.2578     4.0361     6.0610 O.2     
  14 F14           -0.1251     3.3696     4.9768 F       
  15 H15            0.5293    -0.3651     0.8851 H       
  16 H16           -1.0205    -0.3814     0.0098 H       
  17 H17            0.5123    -0.3556    -0.8948 H       
  18 H18            2.2348     2.1521    -0.8978 H       
  19 H19            1.7098     3.5935     0.0050 H       
  20 H20            2.2518     2.1425     0.8821 H       
  21 H21           -1.9468     2.0986    -1.4893 H       
  22 H22           -0.9390     3.5658    -1.4911 H       
  23 H23           -0.4140     2.1244    -2.3938 H       
  24 H24            0.8885     2.5289     2.7220 H       
  25 H25           -3.9790     3.2842     2.6486 H       
  26 H26           -2.8227     2.4998     0.6213 H       
@<TRIPOS>BOND
   1    1    2 1
   2    1    3 1
   3    1    4 1
   4    1    5 1
   5    2   15 1
   6    2   16 1
   7    2   17 1
   8    3   18 1
   9    3   19 1
  10    3   20 1
  11    4   21 1
  12    4   22 1
  13    4   23 1
  14    5    6 ar
  15    5   10 ar
  16    6    7 ar
  17    6   24 1
  18    7    8 ar
  19    7   14 1
  20    8    9 ar
  21    8   11 1
  22    9   10 ar
  23    9   25 1
  24   10   26 1
  25   11   12 2
  26   11   13 2

#	End of record

