#	Name: ASD07930487
#	Creating user name:	WinNT
#	Creation time:	15. 06. 2019 21:12

#	Modifying user name:	WinNT
#	Modification time:	15. 06. 2019 21:12

#	Program:	/corina/corina34_cracker 3.40 0067  02.08.2006

@<TRIPOS>MOLECULE
ASD07930487
  48   50    0    0    0
SMALL
NO_CHARGES


@<TRIPOS>ATOM
   1 C1            -0.0343     1.4581     0.0425 C.3     
   2 N2             0.7952    -0.4133    -2.1302 N.2     
   3 N3            -0.8904    -1.7835    -1.2685 N.pl3   
   4 C4            -0.9150    -2.8271    -0.2382 C.3     
   5 C5            -1.2300    -2.1885     1.1215 C.3     
   6 S6             0.0061    -0.8913     1.4435 S.o2    
   7 N7            -0.0141    -0.0067     0.0316 N.am    
   8 C8            -0.0113    -0.7260    -1.1551 C.2     
   9 C9             0.4500    -3.5153    -0.1755 C.3     
  10 C10           -1.9765    -3.8423    -0.5755 C.ar    
  11 C11           -2.8068    -3.6380    -1.6597 C.ar    
  12 C12           -3.7847    -4.5742    -1.9703 C.ar    
  13 C13           -3.9250    -5.7138    -1.1895 C.ar    
  14 C14           -3.0923    -5.9142    -0.1059 C.ar    
  15 C15           -2.1147    -4.9822     0.1989 C.ar    
  16 N16           -4.6276    -4.3690    -3.0684 N.am    
  17 C17           -5.0471    -5.4194    -3.8014 C.2     
  18 O18           -4.6174    -6.5327    -3.5697 O.2     
  19 O19           -0.4576     0.0117     2.4378 O.2     
  20 O20            1.3140    -1.4440     1.5004 O.2     
  21 F21           -1.3009    -5.1803     1.2590 F       
  22 C22           -6.0302    -5.2175    -4.8874 C.ar    
  23 N23           -6.5013    -3.9979    -5.1418 N.ar    
  24 C24           -7.3760    -3.8192    -6.1081 C.ar    
  25 C25           -7.8106    -4.9069    -6.8673 C.ar    
  26 N26           -7.3427    -6.1219    -6.6156 N.ar    
  27 C27           -6.4604    -6.3029    -5.6499 C.ar    
  28 O28           -8.7118    -4.7212    -7.8619 O.3     
  29 C29           -9.1126    -5.8783    -8.5985 C.3     
  30 F30           -7.9928    -6.4538    -9.2084 F       
  31 F31           -9.6979    -6.8049    -7.7291 F       
  32 H32            0.9882     1.8357     0.0394 H       
  33 H33           -0.5582     1.8209    -0.8418 H       
  34 H34           -0.5480     1.8077     0.9380 H       
  35 H35            1.4070     0.3332    -2.0331 H       
  36 H36           -1.4884    -1.8387    -2.0302 H       
  37 H37           -2.2270    -1.7485     1.0987 H       
  38 H38           -1.1799    -2.9460     1.9037 H       
  39 H39            1.2165    -2.7804     0.0704 H       
  40 H40            0.4311    -4.2908     0.5903 H       
  41 H41            0.6749    -3.9651    -1.1426 H       
  42 H42           -2.6962    -2.7508    -2.2655 H       
  43 H43           -4.6849    -6.4429    -1.4291 H       
  44 H44           -3.2011    -6.8004     0.5017 H       
  45 H45           -4.9098    -3.4709    -3.3020 H       
  46 H46           -7.7582    -2.8303    -6.3140 H       
  47 H47           -6.0789    -7.2923    -5.4450 H       
  48 H48           -9.8347    -5.5904    -9.3626 H       
@<TRIPOS>BOND
   1    1    7 1
   2    1   32 1
   3    1   33 1
   4    1   34 1
   5    2    8 2
   6    2   35 1
   7    3    4 1
   8    3    8 1
   9    3   36 1
  10    4    5 1
  11    4    9 1
  12    4   10 1
  13    5    6 1
  14    5   37 1
  15    5   38 1
  16    6    7 am
  17    6   19 2
  18    6   20 2
  19    7    8 1
  20    9   39 1
  21    9   40 1
  22    9   41 1
  23   10   11 ar
  24   10   15 ar
  25   11   12 ar
  26   11   42 1
  27   12   13 ar
  28   12   16 1
  29   13   14 ar
  30   13   43 1
  31   14   15 ar
  32   14   44 1
  33   15   21 1
  34   16   17 am
  35   16   45 1
  36   17   18 2
  37   17   22 1
  38   22   23 ar
  39   22   27 ar
  40   23   24 ar
  41   24   25 ar
  42   24   46 1
  43   25   26 ar
  44   25   28 1
  45   26   27 ar
  46   27   47 1
  47   28   29 1
  48   29   30 1
  49   29   31 1
  50   29   48 1

#	End of record

