#	Name: ASD02408410
#	Creating user name:	WinNT
#	Creation time:	15. 06. 2019 20:21

#	Modifying user name:	WinNT
#	Modification time:	15. 06. 2019 20:21

#	Program:	/corina/corina34_cracker 3.40 0067  02.08.2006

@<TRIPOS>MOLECULE
ASD02408410
  40   43    0    0    0
SMALL
NO_CHARGES


@<TRIPOS>ATOM
   1 N1             0.0248     1.1732    -0.2559 N.am    
   2 C2             0.1431    -0.1787    -0.2556 C.2     
   3 N3             1.2906    -0.7903    -0.2956 N.2     
   4 C4             2.4509    -0.1179    -0.3407 C.2     
   5 C5             2.4290     1.2861    -0.3452 C.2     
   6 C6             1.1290     1.9550    -0.2994 C.2     
   7 N7             3.7603    -0.4857    -0.3879 N.pl3   
   8 N8             4.5418     0.6762    -0.4213 N.2     
   9 C9             3.7653     1.7248    -0.3964 C.2     
  10 C10           -1.1129    -1.0099    -0.2063 C.3     
  11 C11           -0.7520    -2.4889    -0.3593 C.3     
  12 C12            4.2438    -1.8009    -0.4003 C.ar    
  13 C13            3.8284    -2.7046     0.5699 C.ar    
  14 C14            4.3070    -4.0014     0.5543 C.ar    
  15 C15            5.1985    -4.3994    -0.4249 C.ar    
  16 C16            5.6141    -3.5027    -1.3920 C.ar    
  17 C17            5.1352    -2.2059    -1.3860 C.ar    
  18 O18            1.0432     3.1703    -0.3011 O.2     
  19 C19           -2.0057    -3.3600    -0.1667 C.3     
  20 C20           -2.2122    -4.1330    -1.4856 C.3     
  21 C21           -0.8051    -4.1636    -2.1322 C.3     
  22 C22           -0.2404    -2.7628    -1.7887 C.3     
  23 Cl23           2.7101    -2.2058     1.8004 Cl      
  24 Cl24           5.6576    -1.0810    -2.6007 Cl      
  25 H25           -0.8550     1.5810    -0.2288 H       
  26 H26            4.0924     2.7539    -0.4127 H       
  27 H27           -1.6138    -0.8551     0.7493 H       
  28 H28           -1.7776    -0.7123    -1.0173 H       
  29 H29            0.0098    -2.7644     0.3699 H       
  30 H30            3.9845    -4.7044     1.3081 H       
  31 H31            5.5713    -5.4129    -0.4342 H       
  32 H32            6.3105    -3.8170    -2.1553 H       
  33 H33           -1.8520    -4.0589     0.6555 H       
  34 H34           -2.8712    -2.7291     0.0358 H       
  35 H35           -2.5614    -5.1456    -1.2837 H       
  36 H36           -2.9167    -3.6068    -2.1299 H       
  37 H37           -0.1922    -4.9471    -1.6865 H       
  38 H38           -0.8787    -4.2964    -3.2116 H       
  39 H39           -0.6264    -2.0154    -2.4818 H       
  40 H40            0.8493    -2.7756    -1.8079 H       
@<TRIPOS>BOND
   1    1    2 1
   2    1    6 am
   3    1   25 1
   4    2    3 2
   5    2   10 1
   6    3    4 1
   7    4    5 2
   8    4    7 1
   9    5    6 1
  10    5    9 1
  11    6   18 2
  12    7    8 1
  13    7   12 1
  14    8    9 2
  15    9   26 1
  16   10   11 1
  17   10   27 1
  18   10   28 1
  19   11   19 1
  20   11   22 1
  21   11   29 1
  22   12   13 ar
  23   12   17 ar
  24   13   14 ar
  25   13   23 1
  26   14   15 ar
  27   14   30 1
  28   15   16 ar
  29   15   31 1
  30   16   17 ar
  31   16   32 1
  32   17   24 1
  33   19   20 1
  34   19   33 1
  35   19   34 1
  36   20   21 1
  37   20   35 1
  38   20   36 1
  39   21   22 1
  40   21   37 1
  41   21   38 1
  42   22   39 1
  43   22   40 1

#	End of record

