#	Name: ASD05730009
#	Creating user name:	WinNT
#	Creation time:	15. 06. 2019 21:02

#	Modifying user name:	WinNT
#	Modification time:	15. 06. 2019 21:02

#	Program:	/corina/corina34_cracker 3.40 0067  02.08.2006

@<TRIPOS>MOLECULE
ASD05730009
  63   67    0    0    0
SMALL
NO_CHARGES


@<TRIPOS>ATOM
   1 N1            -0.1986     1.0640    -1.1056 N.ar    
   2 C2            -0.1013    -0.1381    -0.5485 C.ar    
   3 N3             1.0318    -0.8244    -0.5302 N.ar    
   4 C4             2.1296    -0.3219    -1.0804 C.ar    
   5 C5             2.0637     0.9538    -1.6826 C.ar    
   6 C6             0.8443     1.6400    -1.6763 C.ar    
   7 N7             3.3167    -1.0081    -1.0767 N.am    
   8 C8             4.4204    -0.4840    -1.6385 C.2     
   9 C9             4.4103     0.7860    -2.2530 C.2     
  10 C10            3.2653     1.5174    -2.2909 C.2     
  11 N11           -1.2241    -0.6933     0.0342 N.pl3   
  12 C12           -2.4046     0.0554     0.1344 C.ar    
  13 C13           -3.6489    -0.5574     0.0194 C.ar    
  14 N14           -4.7417     0.1811     0.1198 N.ar    
  15 C15           -4.6615     1.4867     0.3268 C.ar    
  16 N16           -3.4951     2.1035     0.4412 N.ar    
  17 C17           -2.3606     1.4287     0.3570 C.ar    
  18 N18           -5.8294     2.2275     0.4259 N.pl3   
  19 Cl19           5.8641     1.4162    -2.9624 Cl      
  20 O20            5.4578    -1.1233    -1.6159 O.2     
  21 C21            3.3838    -2.3312    -0.4512 C.3     
  22 N22           -5.7199     4.3717    -0.6367 N.3     
  23 C23           -5.7628     3.6730     0.6547 C.3     
  24 C24            3.0570    -3.4043    -1.4916 C.3     
  25 C25           -7.1299     1.5647     0.3017 C.3     
  26 C26            3.1885    -4.8671    -1.0629 C.3     
  27 C27            1.8027    -4.2504    -1.2637 C.3     
  28 C28           -6.2363     5.7413    -0.5117 C.3     
  29 C29           -6.0081     6.4918    -1.8280 C.3     
  30 N30           -6.5940     5.7037    -2.9229 N.am    
  31 C31           -6.2289     4.2830    -3.0305 C.3     
  32 C32           -6.4485     3.6194    -1.6668 C.3     
  33 C33           -7.4427     6.2685    -3.8045 C.2     
  34 O34           -7.8497     5.6277    -4.7503 O.2     
  35 C35           -7.8859     7.6963    -3.6151 C.3     
  36 H36            0.7577     2.6172    -2.1279 H       
  37 H37            3.2449     2.4906    -2.7586 H       
  38 H38           -1.1954    -1.6014     0.3741 H       
  39 H39           -3.7213    -1.6216    -0.1497 H       
  40 H40           -1.4128     1.9376     0.4515 H       
  41 H41            4.3875    -2.4978    -0.0603 H       
  42 H42            2.6627    -2.3844     0.3645 H       
  43 H43           -6.6429     3.9935     1.2122 H       
  44 H44           -4.8650     3.9094     1.2258 H       
  45 H45            3.3170    -3.1561    -2.5206 H       
  46 H46           -7.4678     1.2403     1.2860 H       
  47 H47           -7.8543     2.2618    -0.1196 H       
  48 H48           -7.0354     0.6988    -0.3535 H       
  49 H49            3.5346    -5.5814    -1.8100 H       
  50 H50            3.5078    -5.0650    -0.0397 H       
  51 H51            1.2104    -4.0425    -0.3727 H       
  52 H52            1.2372    -4.5589    -2.1430 H       
  53 H53           -7.3034     5.7089    -0.2917 H       
  54 H54           -5.7136     6.2549     0.2952 H       
  55 H55           -6.4901     7.4683    -1.7811 H       
  56 H56           -4.9386     6.6161    -1.9980 H       
  57 H57           -6.8569     3.7992    -3.7785 H       
  58 H58           -5.1807     4.1950    -3.3160 H       
  59 H59           -6.0796     2.5942    -1.6976 H       
  60 H60           -7.5126     3.6166    -1.4308 H       
  61 H61           -7.3463     8.1360    -2.7763 H       
  62 H62           -7.6757     8.2653    -4.5207 H       
  63 H63           -8.9564     7.7205    -3.4111 H       
@<TRIPOS>BOND
   1    1    2 ar
   2    1    6 ar
   3    2    3 ar
   4    2   11 1
   5    3    4 ar
   6    4    5 ar
   7    4    7 1
   8    5    6 ar
   9    5   10 1
  10    6   36 1
  11    7    8 am
  12    7   21 1
  13    8    9 1
  14    8   20 2
  15    9   10 2
  16    9   19 1
  17   10   37 1
  18   11   12 1
  19   11   38 1
  20   12   13 ar
  21   12   17 ar
  22   13   14 ar
  23   13   39 1
  24   14   15 ar
  25   15   16 ar
  26   15   18 1
  27   16   17 ar
  28   17   40 1
  29   18   25 1
  30   18   23 1
  31   21   24 1
  32   21   41 1
  33   21   42 1
  34   22   23 1
  35   22   28 1
  36   22   32 1
  37   23   43 1
  38   23   44 1
  39   24   26 1
  40   24   27 1
  41   24   45 1
  42   25   46 1
  43   25   47 1
  44   25   48 1
  45   26   27 1
  46   26   49 1
  47   26   50 1
  48   27   51 1
  49   27   52 1
  50   28   29 1
  51   28   53 1
  52   28   54 1
  53   29   30 1
  54   29   55 1
  55   29   56 1
  56   30   31 1
  57   30   33 am
  58   31   32 1
  59   31   57 1
  60   31   58 1
  61   32   59 1
  62   32   60 1
  63   33   34 2
  64   33   35 1
  65   35   61 1
  66   35   62 1
  67   35   63 1

#	End of record

