#	Name: ASD00170417
#	Creating user name:	WinNT
#	Creation time:	15. 06. 2019 18:32

#	Modifying user name:	WinNT
#	Modification time:	15. 06. 2019 18:32

#	Program:	/corina/corina34_cracker 3.40 0067  02.08.2006

@<TRIPOS>MOLECULE
ASD00170417
  70   74    0    0    0
SMALL
NO_CHARGES


@<TRIPOS>ATOM
   1 C1            -0.4456     0.7768    -0.3060 C.2     
   2 C2            -0.6438    -0.5092     0.1473 C.2     
   3 C3            -2.0025    -0.9626    -0.0318 C.2     
   4 C4            -2.7904    -0.0419    -0.6008 C.2     
   5 S5            -1.8905     1.4270    -0.9333 S.3     
   6 C6            -2.4839    -2.3304     0.3786 C.3     
   7 C7            -4.2241    -0.2347    -0.9029 C.ar    
   8 C8            -5.1547     0.7380    -0.5338 C.ar    
   9 C9            -6.4940     0.5527    -0.8192 C.ar    
  10 C10           -6.9138    -0.5959    -1.4703 C.ar    
  11 C11           -5.9945    -1.5647    -1.8390 C.ar    
  12 C12           -4.6520    -1.3875    -1.5634 C.ar    
  13 N13            0.7568     1.4483    -0.2538 N.pl3   
  14 C14            0.4110    -1.3284     0.7460 C.2     
  15 C15            1.2094    -2.2404    -0.1009 C.ar    
  16 O16            0.6311    -1.2590     1.9416 O.2     
  17 C17            2.2867    -2.9408     0.4453 C.ar    
  18 C18            3.0276    -3.7898    -0.3496 C.ar    
  19 C19            2.7052    -3.9480    -1.6873 C.ar    
  20 C20            1.6379    -3.2555    -2.2349 C.ar    
  21 C21            0.8855    -2.4088    -1.4485 C.ar    
  22 Cl22           3.6430    -5.0182    -2.6818 Cl      
  23 N23           -2.2675    -2.5135     1.8200 N.3     
  24 C24           -3.3150    -1.8401     2.5993 C.3     
  25 C25           -3.1172    -0.3252     2.5173 C.3     
  26 C26           -4.2082     0.3763     3.3289 C.3     
  27 C27           -5.5811     0.0097     2.7617 C.3     
  28 C28           -5.7788    -1.5052     2.8437 C.3     
  29 C29           -4.6879    -2.2066     2.0321 C.3     
  30 C30           -2.1904    -3.9397     2.1638 C.3     
  31 C31           -0.9706    -4.5632     1.4825 C.3     
  32 C32           -0.8902    -6.0486     1.8405 C.3     
  33 C33           -0.7608    -6.2013     3.3574 C.3     
  34 C34           -1.9806    -5.5777     4.0387 C.3     
  35 C35           -2.0610    -4.0924     3.6806 C.3     
  36 F36           -7.3959     1.4932    -0.4622 F       
  37 F37           -6.4107    -2.6823    -2.4736 F       
  38 H38           -3.5468    -2.4234     0.1560 H       
  39 H39           -1.9296    -3.0909    -0.1715 H       
  40 H40           -4.8286     1.6336    -0.0259 H       
  41 H41           -7.9615    -0.7368    -1.6911 H       
  42 H42           -3.9362    -2.1431    -1.8514 H       
  43 H43            1.5196     1.0436     0.1882 H       
  44 H44            0.8404     2.3256    -0.6590 H       
  45 H45            2.5394    -2.8176     1.4880 H       
  46 H46            3.8611    -4.3321     0.0718 H       
  47 H47            1.3917    -3.3824    -3.2788 H       
  48 H48            0.0533    -1.8695    -1.8764 H       
  49 H49           -3.2550    -2.1585     3.6400 H       
  50 H50           -2.1392    -0.0640     2.9214 H       
  51 H51           -3.1772    -0.0067     1.4766 H       
  52 H52           -4.1482     0.0578     4.3696 H       
  53 H53           -4.0673     1.4555     3.2705 H       
  54 H54           -6.3583     0.5094     3.3400 H       
  55 H55           -5.6410     0.3282     1.7210 H       
  56 H56           -5.7189    -1.8237     3.8845 H       
  57 H57           -6.7569    -1.7664     2.4397 H       
  58 H58           -4.7479    -1.8882     0.9914 H       
  59 H59           -4.8288    -3.2859     2.0905 H       
  60 H60           -3.0944    -4.4448     1.8236 H       
  61 H61           -1.0628    -4.4545     0.4019 H       
  62 H62           -0.0666    -4.0581     1.8227 H       
  63 H63           -1.7942    -6.5538     1.5004 H       
  64 H64           -0.0212    -6.4928     1.3552 H       
  65 H65           -0.7036    -7.2595     3.6125 H       
  66 H66            0.1432    -5.6961     3.6976 H       
  67 H67           -2.8846    -6.0829     3.6985 H       
  68 H68           -1.8884    -5.6865     5.1193 H       
  69 H69           -1.1570    -3.5872     4.0208 H       
  70 H70           -2.9300    -3.6481     4.1660 H       
@<TRIPOS>BOND
   1    1    2 2
   2    1   13 1
   3    1    5 1
   4    2    3 1
   5    2   14 1
   6    3    4 2
   7    3    6 1
   8    4    5 1
   9    4    7 1
  10    6   23 1
  11    6   38 1
  12    6   39 1
  13    7    8 ar
  14    7   12 ar
  15    8    9 ar
  16    8   40 1
  17    9   10 ar
  18    9   36 1
  19   10   11 ar
  20   10   41 1
  21   11   12 ar
  22   11   37 1
  23   12   42 1
  24   13   43 1
  25   13   44 1
  26   14   15 1
  27   14   16 2
  28   15   17 ar
  29   15   21 ar
  30   17   18 ar
  31   17   45 1
  32   18   19 ar
  33   18   46 1
  34   19   20 ar
  35   19   22 1
  36   20   21 ar
  37   20   47 1
  38   21   48 1
  39   23   24 1
  40   23   30 1
  41   24   25 1
  42   24   29 1
  43   24   49 1
  44   25   26 1
  45   25   50 1
  46   25   51 1
  47   26   27 1
  48   26   52 1
  49   26   53 1
  50   27   28 1
  51   27   54 1
  52   27   55 1
  53   28   29 1
  54   28   56 1
  55   28   57 1
  56   29   58 1
  57   29   59 1
  58   30   31 1
  59   30   35 1
  60   30   60 1
  61   31   32 1
  62   31   61 1
  63   31   62 1
  64   32   33 1
  65   32   63 1
  66   32   64 1
  67   33   34 1
  68   33   65 1
  69   33   66 1
  70   34   35 1
  71   34   67 1
  72   34   68 1
  73   35   69 1
  74   35   70 1

#	End of record

