#	Name: ASD01140616
#	Creating user name:	WinNT
#	Creation time:	15. 06. 2019 19:01

#	Modifying user name:	WinNT
#	Modification time:	15. 06. 2019 19:01

#	Program:	/corina/corina34_cracker 3.40 0067  02.08.2006

@<TRIPOS>MOLECULE
ASD01140616
  11   11    0    0    0
SMALL
NO_CHARGES


@<TRIPOS>ATOM
   1 S1            -0.0220     1.7682     0.0118 S.3     
   2 C2             0.0021    -0.0041     0.0020 C.2     
   3 N3             1.3150    -0.3971    -0.0126 N.am    
   4 C4             2.2811     0.5054    -0.0170 C.2     
   5 C5             1.7940     1.9357    -0.0047 C.3     
   6 N6            -1.0376    -0.7891     0.0081 N.2     
   7 O7             3.4572     0.2106    -0.0298 O.2     
   8 H8             1.5363    -1.3415    -0.0195 H       
   9 H9             2.1228     2.4607    -0.9015 H       
  10 H10            2.1399     2.4511     0.8913 H       
  11 H11           -1.9308    -0.4110     0.0186 H       
@<TRIPOS>BOND
   1    1    2 1
   2    1    5 1
   3    2    3 1
   4    2    6 2
   5    3    4 am
   6    3    8 1
   7    4    5 1
   8    4    7 2
   9    5    9 1
  10    5   10 1
  11    6   11 1

#	End of record

