#	Name: ASD02500699
#	Creating user name:	WinNT
#	Creation time:	15. 06. 2019 20:23

#	Modifying user name:	WinNT
#	Modification time:	15. 06. 2019 20:23

#	Program:	/corina/corina34_cracker 3.40 0067  02.08.2006

@<TRIPOS>MOLECULE
ASD02500699
  66   70    0    0    0
SMALL
NO_CHARGES


@<TRIPOS>ATOM
   1 N1            -4.3439     5.1103    -0.0364 N.ar    
   2 C2            -5.5453     5.6323    -0.0854 C.ar    
   3 C3            -6.4880     5.3976     0.9135 C.ar    
   4 C4            -6.1693     4.6048     1.9789 C.ar    
   5 C5            -4.8783     4.0455     2.0279 C.ar    
   6 C6            -4.4784     3.2211     3.0916 C.ar    
   7 C7            -3.2206     2.6995     3.1027 C.ar    
   8 C8            -2.3241     2.9734     2.0721 C.ar    
   9 C9            -2.6784     3.7684     1.0257 C.ar    
  10 C10           -3.9680     4.3255     0.9784 C.ar    
  11 S11           -1.5245     4.0989    -0.2642 S.o2    
  12 O12           -1.5071     5.5095    -0.4353 O.2     
  13 O13           -0.3619     3.3376     0.0326 O.2     
  14 N14           -2.1541     3.4664    -1.6591 N.am    
  15 C15           -2.2936     2.0873    -1.7977 C.ar    
  16 C16           -2.0805     1.4865    -3.0402 C.ar    
  17 C17           -2.2185     0.1205    -3.1783 C.ar    
  18 C18           -2.5717    -0.6592    -2.0723 C.ar    
  19 C19           -2.7835    -0.0525    -0.8318 C.ar    
  20 C20           -2.6390     1.3109    -0.6978 C.ar    
  21 C21           -2.7207    -2.1199    -2.2154 C.2     
  22 O22           -3.2704    -2.5817    -3.1968 O.2     
  23 N23           -2.2476    -2.9426    -1.2584 N.am    
  24 C24           -2.2825    -4.4025    -1.4331 C.3     
  25 C25           -0.8832    -4.9600    -1.1513 C.3     
  26 N26           -0.4346    -4.5032     0.1708 N.3     
  27 C27           -0.3071    -3.0403     0.2141 C.3     
  28 C28           -1.6772    -2.4040    -0.0143 C.3     
  29 C29            0.8264    -5.1530     0.5524 C.3     
  30 O30            1.1371    -5.0865     4.1766 O.3     
  31 C31            0.3633    -4.7761     3.0119 C.3     
  32 C32            1.3487    -4.5309     1.8490 C.3     
  33 C33            2.6262    -5.2656     2.3390 C.3     
  34 C34            2.5381    -5.0215     3.8666 C.3     
  35 O35           -1.7376     2.2476    -4.1141 O.3     
  36 C36           -1.5352     1.5665    -5.3539 C.3     
  37 H37           -5.8114     6.2613    -0.9220 H       
  38 H38           -7.4698     5.8425     0.8454 H       
  39 H39           -6.8875     4.4125     2.7622 H       
  40 H40           -5.1643     3.0022     3.8966 H       
  41 H41           -2.9139     2.0655     3.9214 H       
  42 H42           -1.3318     2.5483     2.1041 H       
  43 H43           -2.4258     4.0562    -2.3797 H       
  44 H44           -2.0544    -0.3455    -4.1386 H       
  45 H45           -3.0563    -0.6531     0.0234 H       
  46 H46           -2.7988     1.7780     0.2628 H       
  47 H47           -2.9975    -4.8378    -0.7349 H       
  48 H48           -2.5730    -4.6421    -2.4559 H       
  49 H49           -0.9155    -6.0494    -1.1680 H       
  50 H50           -0.1898    -4.6046    -1.9136 H       
  51 H51            0.0783    -2.7375     1.1876 H       
  52 H52            0.3782    -2.7117    -0.5672 H       
  53 H53           -1.5677    -1.3229    -0.0997 H       
  54 H54           -2.3329    -2.6435     0.8229 H       
  55 H55            0.6546    -6.2186     0.7041 H       
  56 H56            1.5617    -5.0127    -0.2399 H       
  57 H57           -0.2930    -5.6121     2.7703 H       
  58 H58           -0.2292    -3.8787     3.1899 H       
  59 H59            1.5365    -3.4653     1.7178 H       
  60 H60            2.5804    -6.3298     2.1080 H       
  61 H61            3.5249    -4.8129     1.9200 H       
  62 H62            2.9356    -4.0377     4.1161 H       
  63 H63            3.0813    -5.7977     4.4057 H       
  64 H64           -0.7312     0.8391    -5.2417 H       
  65 H65           -2.4528     1.0526    -5.6402 H       
  66 H66           -1.2671     2.2883    -6.1254 H       
@<TRIPOS>BOND
   1    1    2 ar
   2    1   10 ar
   3    2    3 ar
   4    2   37 1
   5    3    4 ar
   6    3   38 1
   7    4    5 ar
   8    4   39 1
   9    5    6 ar
  10    5   10 ar
  11    6    7 ar
  12    6   40 1
  13    7    8 ar
  14    7   41 1
  15    8    9 ar
  16    8   42 1
  17    9   10 ar
  18    9   11 1
  19   11   12 2
  20   11   13 2
  21   11   14 am
  22   14   15 1
  23   14   43 1
  24   15   16 ar
  25   15   20 ar
  26   16   17 ar
  27   16   35 1
  28   17   18 ar
  29   17   44 1
  30   18   19 ar
  31   18   21 1
  32   19   20 ar
  33   19   45 1
  34   20   46 1
  35   21   22 2
  36   21   23 am
  37   23   24 1
  38   23   28 1
  39   24   25 1
  40   24   47 1
  41   24   48 1
  42   25   26 1
  43   25   49 1
  44   25   50 1
  45   26   27 1
  46   26   29 1
  47   27   28 1
  48   27   51 1
  49   27   52 1
  50   28   53 1
  51   28   54 1
  52   29   32 1
  53   29   55 1
  54   29   56 1
  55   30   31 1
  56   30   34 1
  57   31   32 1
  58   31   57 1
  59   31   58 1
  60   32   33 1
  61   32   59 1
  62   33   34 1
  63   33   60 1
  64   33   61 1
  65   34   62 1
  66   34   63 1
  67   35   36 1
  68   36   64 1
  69   36   65 1
  70   36   66 1

#	End of record

