#	Name: ASD06150007
#	Creating user name:	WinNT
#	Creation time:	15. 06. 2019 21:05

#	Modifying user name:	WinNT
#	Modification time:	15. 06. 2019 21:05

#	Program:	/corina/corina34_cracker 3.40 0067  02.08.2006

@<TRIPOS>MOLECULE
ASD06150007
  38   41    0    0    0
SMALL
NO_CHARGES


@<TRIPOS>ATOM
   1 C1            -0.5358     1.5147     0.4580 C.3     
   2 O2            -0.7590     0.0942     0.6600 O.3     
   3 C3             0.0782    -0.5426     1.5002 C.2     
   4 O4             0.9709     0.0717     2.0496 O.2     
   5 N5            -0.0739    -1.8615     1.7318 N.am    
   6 C6             0.7871    -2.5164     2.5958 C.2     
   7 N7             1.8214    -1.9294     3.2658 N.pl3   
   8 C8             2.4346    -2.9145     4.0201 C.ar    
   9 C9             1.7219    -4.0994     3.7675 C.ar    
  10 N10            0.7265    -3.7886     2.8956 N.2     
  11 C11            2.1096    -5.2840     4.3941 C.ar    
  12 C12            3.1955    -5.2800     5.2606 C.ar    
  13 C13            3.8973    -4.0946     5.5044 C.ar    
  14 C14            3.5178    -2.9235     4.8888 C.ar    
  15 C15            3.6114    -6.5351     5.9291 C.2     
  16 N16            2.7089    -7.3596     6.3961 N.2     
  17 N17            3.0432    -8.5547     7.0336 N.am    
  18 C18            4.3257    -8.9338     7.2081 C.2     
  19 O19            4.5900    -9.9826     7.7683 O.2     
  20 C20            5.3986    -8.0622     6.7117 C.ar    
  21 C21            5.0387    -6.8601     6.0641 C.ar    
  22 C22            6.0339    -6.0116     5.5813 C.ar    
  23 C23            7.3580    -6.3560     5.7417 C.ar    
  24 C24            7.7116    -7.5384     6.3787 C.ar    
  25 C25            6.7448    -8.3939     6.8592 C.ar    
  26 H26            0.4630     1.6712     0.0506 H       
  27 H27           -1.2777     1.9035    -0.2395 H       
  28 H28           -0.6252     2.0357     1.4112 H       
  29 H29           -0.7866    -2.3520     1.2932 H       
  30 H30            2.0790    -0.9953     3.2213 H       
  31 H31            1.5682    -6.1995     4.2067 H       
  32 H32            4.7405    -4.0984     6.1791 H       
  33 H33            4.0635    -2.0115     5.0807 H       
  34 H34            2.3332    -9.1290     7.3608 H       
  35 H35            5.7685    -5.0902     5.0844 H       
  36 H36            8.1296    -5.6994     5.3677 H       
  37 H37            8.7550    -7.7915     6.4951 H       
  38 H38            7.0277    -9.3116     7.3533 H       
@<TRIPOS>BOND
   1    1    2 1
   2    1   26 1
   3    1   27 1
   4    1   28 1
   5    2    3 1
   6    3    4 2
   7    3    5 am
   8    5    6 1
   9    5   29 1
  10    6    7 1
  11    6   10 2
  12    7    8 1
  13    7   30 1
  14    8    9 ar
  15    8   14 ar
  16    9   10 1
  17    9   11 ar
  18   11   12 ar
  19   11   31 1
  20   12   13 ar
  21   12   15 1
  22   13   14 ar
  23   13   32 1
  24   14   33 1
  25   15   16 2
  26   15   21 1
  27   16   17 1
  28   17   18 am
  29   17   34 1
  30   18   19 2
  31   18   20 1
  32   20   21 ar
  33   20   25 ar
  34   21   22 ar
  35   22   23 ar
  36   22   35 1
  37   23   24 ar
  38   23   36 1
  39   24   25 ar
  40   24   37 1
  41   25   38 1

#	End of record

