#	Name: ASD08710140
#	Creating user name:	WinNT
#	Creation time:	15. 06. 2019 21:19

#	Modifying user name:	WinNT
#	Modification time:	15. 06. 2019 21:19

#	Program:	/corina/corina34_cracker 3.40 0067  02.08.2006

@<TRIPOS>MOLECULE
ASD08710140
  37   37    0    0    0
SMALL
NO_CHARGES


@<TRIPOS>ATOM
   1 N1             0.1252     1.9118    -0.1372 N.am    
   2 C2             0.3766     0.4908    -0.4213 C.3     
   3 C3             1.3030    -0.0662     0.6649 C.3     
   4 N4             2.5063     0.7717     0.7547 N.3     
   5 C5             2.1722     2.1415     1.1667 C.3     
   6 C6             1.2814     2.7890     0.1011 C.3     
   7 S7            -1.4185     2.5097    -0.0937 S.o2    
   8 O8            -2.2418     1.4597     0.3952 O.2     
   9 O9            -1.3372     3.7861     0.5254 O.2     
  10 C10           -1.9142     2.7957    -1.7602 C.ar    
  11 C11           -2.6642     1.8475    -2.4307 C.ar    
  12 C12           -3.0530     2.0719    -3.7381 C.ar    
  13 C13           -2.6923     3.2446    -4.3749 C.ar    
  14 C14           -1.9432     4.1932    -3.7041 C.ar    
  15 C15           -1.5580     3.9707    -2.3953 C.ar    
  16 C16           -3.1154     3.4888    -5.8005 C.3     
  17 F17           -4.3549     4.1373    -5.8146 F       
  18 F18           -2.1627     4.2900    -6.4390 F       
  19 F19           -3.2213     2.2658    -6.4715 F       
  20 C20           -0.9466    -0.2773    -0.4117 C.3     
  21 H21            0.8540     0.3911    -1.3961 H       
  22 H22            0.7839    -0.0612     1.6233 H       
  23 H23            1.5887    -1.0870     0.4109 H       
  24 H24            3.1863     0.3624     1.3777 H       
  25 H25            1.6410     2.1158     2.1182 H       
  26 H26            3.0882     2.7219     1.2767 H       
  27 H27            1.8458     2.9103    -0.8235 H       
  28 H28            0.9369     3.7613     0.4533 H       
  29 H29           -2.9460     0.9313    -1.9332 H       
  30 H30           -3.6383     1.3308    -4.2621 H       
  31 H31           -1.6611     5.1093    -4.2018 H       
  32 H32           -0.9758     4.7134    -1.8700 H       
  33 H33           -1.6538     0.2089    -1.0838 H       
  34 H34           -0.7748    -1.3011    -0.7438 H       
  35 H35           -1.3539    -0.2867     0.5993 H       
  36 Cl36           8.1863    10.1093     7.1182 Cl      
  37 H37            8.1863    11.4793     7.1182 H       
@<TRIPOS>BOND
   1    1    2 1
   2    1    6 1
   3    1    7 am
   4    2    3 1
   5    2   20 1
   6    2   21 1
   7    3    4 1
   8    3   22 1
   9    3   23 1
  10    4    5 1
  11    4   24 1
  12    5    6 1
  13    5   25 1
  14    5   26 1
  15    6   27 1
  16    6   28 1
  17    7    8 2
  18    7    9 2
  19    7   10 1
  20   10   11 ar
  21   10   15 ar
  22   11   12 ar
  23   11   29 1
  24   12   13 ar
  25   12   30 1
  26   13   14 ar
  27   13   16 1
  28   14   15 ar
  29   14   31 1
  30   15   32 1
  31   16   17 1
  32   16   18 1
  33   16   19 1
  34   20   33 1
  35   20   34 1
  36   20   35 1
  37   36   37 1

#	End of record

