#	Name: ASD01410504
#	Creating user name:	WinNT
#	Creation time:	15. 06. 2019 19:18

#	Modifying user name:	WinNT
#	Modification time:	15. 06. 2019 19:18

#	Program:	/corina/corina34_cracker 3.40 0067  02.08.2006

@<TRIPOS>MOLECULE
ASD01410504
  71   74    0    0    0
SMALL
NO_CHARGES


@<TRIPOS>ATOM
   1 C1             3.3071     5.9359    -2.3791 C.ar    
   2 C2             4.0341     5.6048    -3.5141 C.ar    
   3 C3             4.9550     4.5775    -3.4508 C.ar    
   4 N4             5.1492     3.9118    -2.3286 N.ar    
   5 C5             4.4758     4.1978    -1.2262 C.ar    
   6 C6             3.5339     5.2186    -1.2173 C.ar    
   7 O7             4.7071     3.4871    -0.0941 O.3     
   8 C8             5.5599     2.4300    -0.1668 C.ar    
   9 C9             6.9347     2.6411    -0.0965 C.ar    
  10 C10            7.8095     1.5731    -0.1695 C.ar    
  11 C11            7.3217     0.2824    -0.3134 C.ar    
  12 C12            5.9366     0.0640    -0.3843 C.ar    
  13 C13            5.0595     1.1499    -0.3043 C.ar    
  14 F14            7.4158     3.8958     0.0432 F       
  15 N15            8.2035    -0.7936    -0.3878 N.am    
  16 C16            8.6793    -1.3543     0.7416 C.2     
  17 C17            8.6135    -1.3156    -1.6938 C.3     
  18 O18            9.3947    -2.3353     0.6786 O.2     
  19 C19            8.3319    -0.7773     2.0550 C.ar    
  20 C20            7.1097    -0.1253     2.2338 C.ar    
  21 C21            6.7907     0.4110     3.4628 C.ar    
  22 C22            7.6787     0.3054     4.5213 C.ar    
  23 C23            8.8921    -0.3388     4.3536 C.ar    
  24 C24            9.2230    -0.8860     3.1283 C.ar    
  25 C25            3.8206     6.3578    -4.8019 C.3     
  26 C26            4.7722     7.5546    -4.8566 C.3     
  27 C27            7.9397    -0.5039    -2.8019 C.3     
  28 C28           10.1332    -1.2053    -1.8329 C.3     
  29 Cl29           7.2675     0.9849     6.0650 Cl      
  30 O30           10.7606    -2.1600    -0.9744 O.3     
  31 C31            5.8232    -0.1230    -3.8605 C.3     
  32 O32            6.5494    -0.8303    -2.8533 O.3     
  33 N33            3.7308     9.2540    -6.2596 N.2     
  34 N34            4.5646     8.2867    -6.1085 N.pl3   
  35 C35            3.8001     9.6805    -7.5003 C.2     
  36 C36            4.7639     8.8856    -8.1249 C.2     
  37 N37            5.1913     8.0494    -7.2061 N.2     
  38 C38           12.1885    -2.1401    -1.0284 C.3     
  39 F39           10.4072    -1.5153     2.9648 F       
  40 C40            2.7695     5.5413     0.0408 C.3     
  41 F41            1.8887     6.5996    -0.2072 F       
  42 F42            2.0441     4.4162     0.4472 F       
  43 F43            3.6662     5.9076     1.0502 F       
  44 C44            5.4101    -1.3025    -0.5376 C.2     
  45 O45            6.1619    -2.2548    -0.4675 O.2     
  46 O46            4.0944    -1.4972    -0.7556 O.3     
  47 H47            2.5841     6.7379    -2.4009 H       
  48 H48            5.5230     4.3157    -4.3312 H       
  49 H49            8.8745     1.7439    -0.1147 H       
  50 H50            3.9930     0.9889    -0.3582 H       
  51 H51            8.3160    -2.3609    -1.7769 H       
  52 H52            6.4159    -0.0413     1.4104 H       
  53 H53            5.8458     0.9155     3.6011 H       
  54 H54            9.5797    -0.4177     5.1826 H       
  55 H55            4.0185     5.6973    -5.6461 H       
  56 H56            2.7903     6.7103    -4.8501 H       
  57 H57            4.5743     8.2151    -4.0124 H       
  58 H58            5.8025     7.2021    -4.8084 H       
  59 H59            8.0557     0.5600    -2.5949 H       
  60 H60            8.4041    -0.7404    -3.7593 H       
  61 H61           10.4188    -1.4028    -2.8661 H       
  62 H62           10.4516    -0.2010    -1.5535 H       
  63 H63            5.8953     0.9487    -3.6754 H       
  64 H64            6.2437    -0.3517    -4.8398 H       
  65 H65            4.7766    -0.4266    -3.8346 H       
  66 H66            3.2290    10.4816    -7.9458 H       
  67 H67            5.0910     8.9462    -9.1524 H       
  68 H68           12.5882    -2.8929    -0.3491 H       
  69 H69           12.5167    -2.3570    -2.0449 H       
  70 H70           12.5496    -1.1552    -0.7324 H       
  71 H71            3.7957    -2.4121    -0.8497 H       
@<TRIPOS>BOND
   1    1    2 ar
   2    1    6 ar
   3    1   47 1
   4    2    3 ar
   5    2   25 1
   6    3    4 ar
   7    3   48 1
   8    4    5 ar
   9    5    6 ar
  10    5    7 1
  11    6   40 1
  12    7    8 1
  13    8    9 ar
  14    8   13 ar
  15    9   10 ar
  16    9   14 1
  17   10   11 ar
  18   10   49 1
  19   11   12 ar
  20   11   15 1
  21   12   13 ar
  22   12   44 1
  23   13   50 1
  24   15   16 am
  25   15   17 1
  26   16   18 2
  27   16   19 1
  28   17   28 1
  29   17   27 1
  30   17   51 1
  31   19   20 ar
  32   19   24 ar
  33   20   21 ar
  34   20   52 1
  35   21   22 ar
  36   21   53 1
  37   22   23 ar
  38   22   29 1
  39   23   24 ar
  40   23   54 1
  41   24   39 1
  42   25   26 1
  43   25   55 1
  44   25   56 1
  45   26   34 1
  46   26   57 1
  47   26   58 1
  48   27   32 1
  49   27   59 1
  50   27   60 1
  51   28   30 1
  52   28   61 1
  53   28   62 1
  54   30   38 1
  55   31   32 1
  56   31   63 1
  57   31   64 1
  58   31   65 1
  59   33   34 1
  60   33   35 2
  61   34   37 1
  62   35   36 1
  63   35   66 1
  64   36   37 2
  65   36   67 1
  66   38   68 1
  67   38   69 1
  68   38   70 1
  69   40   41 1
  70   40   42 1
  71   40   43 1
  72   44   45 2
  73   44   46 1
  74   46   71 1

#	End of record

