#	Name: ASD04882204
#	Creating user name:	WinNT
#	Creation time:	15. 06. 2019 20:54

#	Modifying user name:	WinNT
#	Modification time:	15. 06. 2019 20:54

#	Program:	/corina/corina34_cracker 3.40 0067  02.08.2006

@<TRIPOS>MOLECULE
ASD04882204
  82   86    0    0    0
SMALL
NO_CHARGES


@<TRIPOS>ATOM
   1 C1            -0.1617     1.4754     0.4546 C.2     
   2 C2            -0.1422     0.0093     0.4889 C.2     
   3 N3            -1.1636    -0.6908    -0.0430 N.am    
   4 C4            -1.0912    -2.0880    -0.1179 C.ar    
   5 C5            -2.2495    -2.8571     0.0250 C.ar    
   6 C6            -2.1791    -4.2435    -0.0492 C.ar    
   7 C7            -0.9686    -4.8642    -0.2636 C.ar    
   8 C8             0.1936    -4.1011    -0.4074 C.ar    
   9 C9             0.1247    -2.7067    -0.3389 C.ar    
  10 N10           -3.4756    -2.2337     0.2424 N.3     
  11 C11           -3.5001    -1.5611     1.5488 C.3     
  12 C12           -4.5823    -3.1936     0.1265 C.3     
  13 C13           -5.9131    -2.4562     0.2928 C.3     
  14 N14           -5.9376    -1.7837     1.5992 N.3     
  15 C15           -4.8309    -0.8238     1.7150 C.3     
  16 C16           -7.1674    -1.1584     1.8173 C.ar    
  17 C17           -7.9519    -1.5253     2.9031 C.ar    
  18 C18           -7.6061    -0.1641     0.9517 C.ar    
  19 C19           -8.8224     0.4519     1.1702 C.ar    
  20 C20           -9.6036     0.0805     2.2495 C.ar    
  21 C21           -9.1676    -0.9050     3.1158 C.ar    
  22 C22            1.4903    -4.7662    -0.6366 C.2     
  23 N23            1.5549    -6.1106    -0.7076 N.am    
  24 O24            2.5009    -4.1016    -0.7616 O.2     
  25 O25            0.7964    -0.5751     0.9976 O.2     
  26 S26            1.0810     2.5463     1.0980 S.3     
  27 C27            0.1794     3.9094     0.5963 C.2     
  28 N28           -0.9175     3.5370     0.0189 N.2     
  29 C29           -1.1369     2.2501    -0.0835 C.2     
  30 C30           -7.4776    -2.5993     3.8478 C.3     
  31 C31            0.6020     5.3418     0.7977 C.3     
  32 C32            2.8426    -6.7711    -0.9352 C.3     
  33 C33            2.6386    -8.2870    -0.9727 C.3     
  34 C34            3.9834    -8.9768    -1.2105 C.3     
  35 N35            3.7881   -10.4283    -1.2463 N.am    
  36 C36            3.4940   -11.1944    -2.4631 C.3     
  37 C37            2.9498   -12.5544    -1.9724 C.3     
  38 C38            3.5934   -12.6643    -0.5707 C.3     
  39 C39            3.8609   -11.2302    -0.1700 C.2     
  40 O40            4.0990   -10.8573     0.9592 O.2     
  41 C41            0.0677     5.8473     2.1393 C.3     
  42 C42            0.4967     7.3016     2.3438 C.3     
  43 H43           -1.9489    -0.2274    -0.3739 H       
  44 H44           -3.0758    -4.8352     0.0620 H       
  45 H45           -0.9171    -5.9414    -0.3204 H       
  46 H46            1.0210    -2.1145    -0.4500 H       
  47 H47           -3.3934    -2.3019     2.3412 H       
  48 H48           -2.6789    -0.8466     1.6055 H       
  49 H49           -4.5500    -3.6692    -0.8537 H       
  50 H50           -4.4878    -3.9529     0.9028 H       
  51 H51           -6.0199    -1.7154    -0.4996 H       
  52 H52           -6.7343    -3.1707     0.2361 H       
  53 H53           -4.8632    -0.3482     2.6953 H       
  54 H54           -4.9254    -0.0644     0.9388 H       
  55 H55           -6.9963     0.1269     0.1092 H       
  56 H56           -9.1640     1.2249     0.4978 H       
  57 H57          -10.5542     0.5644     2.4185 H       
  58 H58           -9.7800    -1.1927     3.9575 H       
  59 H59            0.7487    -6.6408    -0.6079 H       
  60 H60           -2.0218     1.8409    -0.5481 H       
  61 H61           -6.8984    -2.1458     4.6522 H       
  62 H62           -8.3383    -3.1193     4.2684 H       
  63 H63           -6.8530    -3.3097     3.3062 H       
  64 H64            1.6902     5.4036     0.7934 H       
  65 H65            0.2000     5.9559    -0.0082 H       
  66 H66            3.2593    -6.4370    -1.8853 H       
  67 H67            3.5292    -6.5167    -0.1278 H       
  68 H68            2.2218    -8.6211    -0.0226 H       
  69 H69            1.9520    -8.5414    -1.7801 H       
  70 H70            4.4002    -8.6427    -2.1606 H       
  71 H71            4.6700    -8.7224    -0.4030 H       
  72 H72            2.7410   -10.6800    -3.0600 H       
  73 H73            4.4034   -11.3403    -3.0460 H       
  74 H74            1.8622   -12.5368    -1.9019 H       
  75 H75            3.2842   -13.3649    -2.6198 H       
  76 H76            2.9045   -13.1368     0.1294 H       
  77 H77            4.5282   -13.2224    -0.6229 H       
  78 H78           -1.0206     5.7856     2.1435 H       
  79 H79            0.4696     5.2332     2.9451 H       
  80 H80            1.5850     7.3634     2.3395 H       
  81 H81            0.0948     7.9158     1.5379 H       
  82 H82            0.1161     7.6618     3.2995 H       
@<TRIPOS>BOND
   1    1    2 1
   2    1   26 1
   3    1   29 2
   4    2    3 am
   5    2   25 2
   6    3    4 1
   7    3   43 1
   8    4    5 ar
   9    4    9 ar
  10    5    6 ar
  11    5   10 1
  12    6    7 ar
  13    6   44 1
  14    7    8 ar
  15    7   45 1
  16    8    9 ar
  17    8   22 1
  18    9   46 1
  19   10   11 1
  20   10   12 1
  21   11   15 1
  22   11   47 1
  23   11   48 1
  24   12   13 1
  25   12   49 1
  26   12   50 1
  27   13   14 1
  28   13   51 1
  29   13   52 1
  30   14   15 1
  31   14   16 1
  32   15   53 1
  33   15   54 1
  34   16   17 ar
  35   16   18 ar
  36   17   30 1
  37   17   21 ar
  38   18   19 ar
  39   18   55 1
  40   19   20 ar
  41   19   56 1
  42   20   21 ar
  43   20   57 1
  44   21   58 1
  45   22   23 am
  46   22   24 2
  47   23   32 1
  48   23   59 1
  49   26   27 1
  50   27   28 2
  51   27   31 1
  52   28   29 1
  53   29   60 1
  54   30   61 1
  55   30   62 1
  56   30   63 1
  57   31   41 1
  58   31   64 1
  59   31   65 1
  60   32   33 1
  61   32   66 1
  62   32   67 1
  63   33   34 1
  64   33   68 1
  65   33   69 1
  66   34   35 1
  67   34   70 1
  68   34   71 1
  69   35   36 1
  70   35   39 am
  71   36   37 1
  72   36   72 1
  73   36   73 1
  74   37   38 1
  75   37   74 1
  76   37   75 1
  77   38   39 1
  78   38   76 1
  79   38   77 1
  80   39   40 2
  81   41   42 1
  82   41   78 1
  83   41   79 1
  84   42   80 1
  85   42   81 1
  86   42   82 1

#	End of record

