#	Name: ASD01883411
#	Creating user name:	WinNT
#	Creation time:	15. 06. 2019 19:46

#	Modifying user name:	WinNT
#	Modification time:	15. 06. 2019 19:46

#	Program:	/corina/corina34_cracker 3.40 0067  02.08.2006

@<TRIPOS>MOLECULE
ASD01883411
  61   63    0    0    0
SMALL
NO_CHARGES


@<TRIPOS>ATOM
   1 N1            -0.0281     1.3426    -0.2540 N.am    
   2 C2            -0.4227     0.5867    -1.2954 C.2     
   3 C3            -1.6487    -0.1168    -1.2320 C.2     
   4 C4            -2.4309    -0.0062    -0.0700 C.2     
   5 C5            -1.9645     0.7996     0.9851 C.2     
   6 C6            -0.7830     1.4445     0.8708 C.2     
   7 O7             0.2753     0.5085    -2.2922 O.2     
   8 C8            -2.0841    -0.9253    -2.3309 C.1     
   9 N9            -2.4295    -1.5666    -3.2026 N.1     
  10 C10            1.2438     2.0653    -0.3328 C.3     
  11 C11            1.0051     3.4545    -0.9278 C.3     
  12 C12            2.3335     4.2092    -1.0100 C.3     
  13 C13            3.2626     3.5002    -1.9974 C.3     
  14 C14           -4.8806     0.0819     0.1531 C.3     
  15 C15           -5.8511    -0.3583    -0.9464 C.3     
  16 C16           -7.1760     0.3894    -0.7800 C.3     
  17 N17           -7.7418     0.0968     0.5431 N.3     
  18 C18           -6.8486     0.5536     1.6154 C.3     
  19 C19           -5.5140    -0.1892     1.5206 C.3     
  20 C20           -9.0798     0.6863     0.6855 C.3     
  21 N21           -3.6309    -0.6732     0.0341 N.pl3   
  22 C22            2.0782     5.6403    -1.4875 C.3     
  23 C23           -3.6579    -2.1379     0.0258 C.3     
  24 C24           -9.7263     0.1667     1.9437 C.ar    
  25 C25           -9.5550     0.8411     3.1382 C.ar    
  26 C26          -10.1479     0.3645     4.2923 C.ar    
  27 C27          -10.9127    -0.7864     4.2520 C.ar    
  28 C28          -11.0848    -1.4603     3.0574 C.ar    
  29 C29          -10.4953    -0.9813     1.9024 C.ar    
  30 H30           -2.5493     0.8996     1.8876 H       
  31 H31           -0.4353     2.0601     1.6872 H       
  32 H32            1.6670     2.1659     0.6667 H       
  33 H33            1.9371     1.5127    -0.9669 H       
  34 H34            0.5819     3.3539    -1.9272 H       
  35 H35            0.3119     4.0071    -0.2936 H       
  36 H36            2.7997     4.2326    -0.0250 H       
  37 H37            2.7964     3.4769    -2.9824 H       
  38 H38            4.2089     4.0379    -2.0560 H       
  39 H39            3.4444     2.4807    -1.6572 H       
  40 H40           -4.6737     1.1472     0.0512 H       
  41 H41           -5.4237    -0.1286    -1.9224 H       
  42 H42           -6.0266    -1.4313    -0.8687 H       
  43 H43           -7.0019     1.4615    -0.8715 H       
  44 H44           -7.8741     0.0677    -1.5528 H       
  45 H45           -6.6761     1.6249     1.5127 H       
  46 H46           -7.3090     0.3512     2.5825 H       
  47 H47           -5.6841    -1.2595     1.6370 H       
  48 H48           -4.8457     0.1613     2.3071 H       
  49 H49           -8.9946     1.7715     0.7423 H       
  50 H50           -9.6902     0.4143    -0.1756 H       
  51 H51            1.4163     6.1454    -0.7841 H       
  52 H52            3.0246     6.1779    -1.5461 H       
  53 H53            1.6120     5.6169    -2.4725 H       
  54 H54           -3.8528    -2.4920    -0.9865 H       
  55 H55           -2.6958    -2.5210     0.3658 H       
  56 H56           -4.4453    -2.4905     0.6919 H       
  57 H57           -8.9575     1.7403     3.1697 H       
  58 H58          -10.0135     0.8910     5.2256 H       
  59 H59          -11.3754    -1.1592     5.1538 H       
  60 H60          -11.6819    -2.3597     3.0259 H       
  61 H61          -10.6298    -1.5078     0.9690 H       
@<TRIPOS>BOND
   1    1    2 am
   2    1   10 1
   3    1    6 1
   4    2    3 1
   5    2    7 2
   6    3    4 2
   7    3    8 1
   8    4    5 1
   9    4   21 1
  10    5    6 2
  11    5   30 1
  12    6   31 1
  13    8    9 3
  14   10   11 1
  15   10   32 1
  16   10   33 1
  17   11   12 1
  18   11   34 1
  19   11   35 1
  20   12   13 1
  21   12   22 1
  22   12   36 1
  23   13   37 1
  24   13   38 1
  25   13   39 1
  26   14   15 1
  27   14   21 1
  28   14   19 1
  29   14   40 1
  30   15   16 1
  31   15   41 1
  32   15   42 1
  33   16   17 1
  34   16   43 1
  35   16   44 1
  36   17   18 1
  37   17   20 1
  38   18   19 1
  39   18   45 1
  40   18   46 1
  41   19   47 1
  42   19   48 1
  43   20   24 1
  44   20   49 1
  45   20   50 1
  46   21   23 1
  47   22   51 1
  48   22   52 1
  49   22   53 1
  50   23   54 1
  51   23   55 1
  52   23   56 1
  53   24   25 ar
  54   24   29 ar
  55   25   26 ar
  56   25   57 1
  57   26   27 ar
  58   26   58 1
  59   27   28 ar
  60   27   59 1
  61   28   29 ar
  62   28   60 1
  63   29   61 1

#	End of record

