#	Name: ASD01910758
#	Creating user name:	WinNT
#	Creation time:	15. 06. 2019 19:56

#	Modifying user name:	WinNT
#	Modification time:	15. 06. 2019 19:56

#	Program:	/corina/corina34_cracker 3.40 0067  02.08.2006

@<TRIPOS>MOLECULE
ASD01910758
  50   53    0    0    0
SMALL
NO_CHARGES


@<TRIPOS>ATOM
   1 C1            -0.1163     1.7513     0.3958 C.ar    
   2 C2            -0.0218     0.3699     0.4078 C.ar    
   3 C3            -1.1659    -0.4021     0.3538 C.ar    
   4 C4            -2.4116     0.2082     0.2879 C.ar    
   5 C5            -2.5040     1.5938     0.2765 C.ar    
   6 C6            -1.3575     2.3619     0.3355 C.ar    
   7 N7            -3.5711    -0.5713     0.2327 N.3     
   8 C8            -4.7710     0.2737     0.1681 C.3     
   9 C9            -6.0005    -0.6084    -0.0730 C.3     
  10 N10           -6.0330    -1.6567     0.9582 N.am    
  11 C11           -4.8178    -2.4561     1.1762 C.3     
  12 C12           -3.6348    -1.5012     1.3681 C.3     
  13 C13           -7.1465    -1.8784     1.6844 C.2     
  14 C14           -7.1997    -3.0161     2.6275 C.ar    
  15 O15           -8.1069    -1.1433     1.5641 O.2     
  16 C16           -7.8229    -2.8675     3.8686 C.ar    
  17 C17           -7.8744    -3.9287     4.7511 C.ar    
  18 C18           -7.3112    -5.1429     4.4144 C.ar    
  19 C19           -6.6839    -5.3062     3.1752 C.ar    
  20 C20           -6.6334    -4.2398     2.2776 C.ar    
  21 C21           -6.0995    -6.5662     2.8268 C.1     
  22 C22           -5.6204    -7.5993     2.5412 C.1     
  23 C23           -5.0360    -8.8593     2.1928 C.ar    
  24 C24           -4.4088    -9.0240     0.9550 C.ar    
  25 C25           -3.8477   -10.2404     0.6266 C.ar    
  26 C26           -3.9052   -11.2963     1.5191 C.ar    
  27 C27           -4.5250   -11.1407     2.7465 C.ar    
  28 C28           -5.0850    -9.9283     3.0913 C.ar    
  29 F29            1.0040     2.5044     0.4487 F       
  30 H30            0.9472    -0.1043     0.4591 H       
  31 H31           -1.0917    -1.4795     0.3625 H       
  32 H32           -3.4718     2.0705     0.2253 H       
  33 H33           -1.4289     3.4395     0.3266 H       
  34 H34           -4.8881     0.8117     1.1088 H       
  35 H35           -4.6695     0.9875    -0.6494 H       
  36 H36           -6.9043    -0.0026    -0.0078 H       
  37 H37           -5.9343    -1.0672    -1.0595 H       
  38 H38           -4.9396    -3.0719     2.0673 H       
  39 H39           -4.6379    -3.0925     0.3098 H       
  40 H40           -2.7093    -2.0747     1.4210 H       
  41 H41           -3.7677    -0.9385     2.2921 H       
  42 H42           -8.2654    -1.9202     4.1390 H       
  43 H43           -8.3573    -3.8077     5.7095 H       
  44 H44           -7.3547    -5.9685     5.1093 H       
  45 H45           -6.1503    -4.3599     1.3192 H       
  46 H46           -4.3639    -8.2011     0.2571 H       
  47 H47           -3.3627   -10.3692    -0.3298 H       
  48 H48           -3.4644   -12.2466     1.2564 H       
  49 H49           -4.5666   -11.9694     3.4379 H       
  50 H50           -5.5684    -9.8083     4.0496 H       
@<TRIPOS>BOND
   1    1    2 ar
   2    1   29 1
   3    1    6 ar
   4    2    3 ar
   5    2   30 1
   6    3    4 ar
   7    3   31 1
   8    4    5 ar
   9    4    7 1
  10    5    6 ar
  11    5   32 1
  12    6   33 1
  13    7    8 1
  14    7   12 1
  15    8    9 1
  16    8   34 1
  17    8   35 1
  18    9   10 1
  19    9   36 1
  20    9   37 1
  21   10   11 1
  22   10   13 am
  23   11   12 1
  24   11   38 1
  25   11   39 1
  26   12   40 1
  27   12   41 1
  28   13   14 1
  29   13   15 2
  30   14   16 ar
  31   14   20 ar
  32   16   17 ar
  33   16   42 1
  34   17   18 ar
  35   17   43 1
  36   18   19 ar
  37   18   44 1
  38   19   20 ar
  39   19   21 1
  40   20   45 1
  41   21   22 3
  42   22   23 1
  43   23   24 ar
  44   23   28 ar
  45   24   25 ar
  46   24   46 1
  47   25   26 ar
  48   25   47 1
  49   26   27 ar
  50   26   48 1
  51   27   28 ar
  52   27   49 1
  53   28   50 1

#	End of record

