#	Name: ASD01885458
#	Creating user name:	WinNT
#	Creation time:	15. 06. 2019 19:49

#	Modifying user name:	WinNT
#	Modification time:	15. 06. 2019 19:49

#	Program:	/corina/corina34_cracker 3.40 0067  02.08.2006

@<TRIPOS>MOLECULE
ASD01885458
  48   51    0    0    0
SMALL
NO_CHARGES


@<TRIPOS>ATOM
   1 C1             0.1909     1.2239     0.1425 C.ar    
   2 C2             0.3030    -0.1663     0.1642 C.ar    
   3 N3            -0.7589    -1.0092     0.2299 N.2     
   4 C4            -1.8639    -0.8917    -0.4115 C.2     
   5 C5            -2.1283     0.2742    -1.3276 C.3     
   6 C6            -2.1167     1.5344    -0.4997 C.2     
   7 N7            -1.0223     1.8991     0.1681 N.am    
   8 C8             1.3462     2.0028     0.0864 C.ar    
   9 C9             2.5970     1.4107     0.0472 C.ar    
  10 C10            2.7096     0.0240     0.0632 C.ar    
  11 C11            1.5795    -0.7551     0.1207 C.ar    
  12 C12           -2.9009    -1.9245    -0.2480 C.ar    
  13 O13           -3.1131     2.2235    -0.4420 O.2     
  14 C14           -4.1526    -1.7642    -0.8491 C.ar    
  15 C15           -5.1192    -2.7355    -0.6917 C.ar    
  16 C16           -4.8529    -3.8664     0.0593 C.ar    
  17 C17           -3.6151    -4.0328     0.6582 C.ar    
  18 C18           -2.6363    -3.0726     0.5045 C.ar    
  19 N19            3.7462     2.2055    -0.0089 N.am    
  20 C20            4.8709     1.8092     0.6190 C.2     
  21 O21            4.8595     0.8132     1.3149 O.2     
  22 O22            6.0073     2.5171     0.4753 O.3     
  23 C23            7.1800     2.0318     1.1807 C.3     
  24 C24            8.3467     2.9442     0.9028 C.ar    
  25 C25            8.5866     4.0293     1.7248 C.ar    
  26 C26            9.6569     4.8663     1.4699 C.ar    
  27 C27           10.4875     4.6178     0.3932 C.ar    
  28 C28           10.2481     3.5321    -0.4283 C.ar    
  29 C29            9.1804     2.6927    -0.1708 C.ar    
  30 Br30          -3.2634    -5.5831     1.6823 Br      
  31 H31           -1.3504     0.3273    -2.0893 H       
  32 H32           -3.1019     0.1553    -1.8029 H       
  33 H33           -1.0776     2.6973     0.7165 H       
  34 H34            1.2643     3.0796     0.0731 H       
  35 H35            3.6845    -0.4396     0.0301 H       
  36 H36            1.6724    -1.8310     0.1331 H       
  37 H37           -4.3626    -0.8817    -1.4352 H       
  38 H38           -6.0867    -2.6127    -1.1558 H       
  39 H39           -5.6140    -4.6232     0.1795 H       
  40 H40           -1.6715    -3.2033     0.9719 H       
  41 H41            3.7338     3.0420    -0.4998 H       
  42 H42            6.9787     2.0153     2.2518 H       
  43 H43            7.4176     1.0240     0.8401 H       
  44 H44            7.9377     4.2235     2.5660 H       
  45 H45            9.8439     5.7145     2.1117 H       
  46 H46           11.3232     5.2721     0.1936 H       
  47 H47           10.8968     3.3382    -1.2697 H       
  48 H48            8.9934     1.8444    -0.8126 H       
@<TRIPOS>BOND
   1    1    2 ar
   2    1    8 ar
   3    1    7 1
   4    2    3 1
   5    2   11 ar
   6    3    4 2
   7    4    5 1
   8    4   12 1
   9    5    6 1
  10    5   31 1
  11    5   32 1
  12    6    7 am
  13    6   13 2
  14    7   33 1
  15    8    9 ar
  16    8   34 1
  17    9   10 ar
  18    9   19 1
  19   10   11 ar
  20   10   35 1
  21   11   36 1
  22   12   14 ar
  23   12   18 ar
  24   14   15 ar
  25   14   37 1
  26   15   16 ar
  27   15   38 1
  28   16   17 ar
  29   16   39 1
  30   17   18 ar
  31   17   30 1
  32   18   40 1
  33   19   20 am
  34   19   41 1
  35   20   21 2
  36   20   22 1
  37   22   23 1
  38   23   24 1
  39   23   42 1
  40   23   43 1
  41   24   25 ar
  42   24   29 ar
  43   25   26 ar
  44   25   44 1
  45   26   27 ar
  46   26   45 1
  47   27   28 ar
  48   27   46 1
  49   28   29 ar
  50   28   47 1
  51   29   48 1

#	End of record

