#	Name: ASD01680066
#	Creating user name:	WinNT
#	Creation time:	15. 06. 2019 19:22

#	Modifying user name:	WinNT
#	Modification time:	15. 06. 2019 19:22

#	Program:	/corina/corina34_cracker 3.40 0067  02.08.2006

@<TRIPOS>MOLECULE
ASD01680066
  88   91    0    0    0
SMALL
NO_CHARGES


@<TRIPOS>ATOM
   1 N1             0.0443     1.4002     0.1639 N.am    
   2 C2             0.0201    -0.0651     0.0040 C.3     
   3 C3             1.4291    -0.5353     0.4437 C.3     
   4 C4             2.3236     0.6096    -0.1008 C.3     
   5 C5             1.4389     1.8597     0.0895 C.3     
   6 C6            -1.0339     2.1888     0.3429 C.2     
   7 O7            -2.1506     1.7127     0.2883 O.2     
   8 O8            -0.8739     3.5040     0.5822 O.3     
   9 C9            -1.0521    -0.6815     0.9047 C.3     
  10 N10           -0.8422    -0.2404     2.2859 N.pl3   
  11 C11           -1.7547    -0.5919     3.2741 C.ar    
  12 C12           -2.8630    -1.3615     2.9444 C.ar    
  13 C13           -3.7661    -1.7050     3.9425 C.ar    
  14 C14           -3.5203    -1.2598     5.2413 C.ar    
  15 C15           -2.3986    -0.4995     5.4917 C.ar    
  16 N16           -1.5557    -0.1941     4.5221 N.ar    
  17 O17           -4.8616    -2.4554     3.6604 O.3     
  18 C18           -5.7363    -2.7609     4.7484 C.3     
  19 O19            3.5255     0.7195     0.6643 O.3     
  20 C20            4.6461     1.2019    -0.0799 C.3     
  21 C21            5.8521     1.2776     0.8206 C.2     
  22 N22            7.0319     1.7086     0.3321 N.am    
  23 O23            5.7610     0.9507     1.9850 O.2     
  24 C24            8.2043     1.7823     1.2075 C.3     
  25 C25            9.4040     2.2987     0.4107 C.3     
  26 N26            9.0607     3.5783    -0.2146 N.am    
  27 C27            9.7077     3.9799    -1.3266 C.2     
  28 O28           10.5741     3.2821    -1.8096 O.2     
  29 C29            9.3545     5.2962    -1.9699 C.3     
  30 C30           10.2298     5.5106    -3.2064 C.3     
  31 C31            9.9907     4.3751    -4.2036 C.3     
  32 C32            8.5178     4.3616    -4.6175 C.3     
  33 C33            7.6425     4.1471    -3.3810 C.3     
  34 C34            7.8816     5.2826    -2.3838 C.3     
  35 C35            9.5936     6.4316    -0.9727 C.3     
  36 C36           10.5770     2.4911     1.3371 C.2     
  37 O37           11.0751     3.5848     1.4621 O.2     
  38 O38           11.0685     1.4474     2.0234 O.3     
  39 C39           -2.0795     4.2923     0.7650 C.3     
  40 C40           -1.7058     5.7297     1.0206 C.ar    
  41 C41           -1.5701     6.6073    -0.0387 C.ar    
  42 C42           -1.2273     7.9259     0.1957 C.ar    
  43 C43           -1.0208     8.3668     1.4894 C.ar    
  44 C44           -1.1574     7.4893     2.5488 C.ar    
  45 C45           -1.5044     6.1719     2.3147 C.ar    
  46 H46           -0.1602    -0.3300    -1.0378 H       
  47 H47            1.4976    -0.6019     1.5295 H       
  48 H48            1.6863    -1.4869    -0.0215 H       
  49 H49            2.5496     0.4540    -1.1557 H       
  50 H50            1.5624     2.5337    -0.7582 H       
  51 H51            1.7112     2.3693     1.0137 H       
  52 H52           -2.0380    -0.3618     0.5670 H       
  53 H53           -0.9863    -1.7684     0.8564 H       
  54 H54           -0.0666     0.2969     2.5108 H       
  55 H55           -3.0204    -1.6878     1.9270 H       
  56 H56           -4.2016    -1.5079     6.0417 H       
  57 H57           -2.2037    -0.1524     6.4957 H       
  58 H58           -5.1888    -3.3165     5.5097 H       
  59 H59           -6.1183    -1.8351     5.1785 H       
  60 H60           -6.5690    -3.3642     4.3867 H       
  61 H61            4.8524     0.5228    -0.9071 H       
  62 H62            4.4222     2.1942    -0.4715 H       
  63 H63            7.1048     1.9701    -0.5992 H       
  64 H64            7.9980     2.4614     2.0347 H       
  65 H65            8.4282     0.7900     1.5991 H       
  66 H66            9.6658     1.5755    -0.3616 H       
  67 H67            8.3677     4.1364     0.1716 H       
  68 H68            9.9743     6.4626    -3.6717 H       
  69 H69           11.2791     5.5203    -2.9116 H       
  70 H70           10.6142     4.5279    -5.0845 H       
  71 H71           10.2461     3.4231    -3.7383 H       
  72 H72            8.2623     5.3136    -5.0828 H       
  73 H73            8.3474     3.5526    -5.3280 H       
  74 H74            6.5932     4.1375    -3.6759 H       
  75 H75            7.8980     3.1951    -2.9157 H       
  76 H76            7.2581     5.1298    -1.5029 H       
  77 H77            7.6262     6.2346    -2.8491 H       
  78 H78           10.6429     6.4413    -0.6778 H       
  79 H79            9.3382     7.3836    -1.4380 H       
  80 H80            8.9701     6.2788    -0.0918 H       
  81 H81           11.8214     1.6198     2.6051 H       
  82 H82           -2.6935     4.2307    -0.1334 H       
  83 H83           -2.6406     3.9059     1.6159 H       
  84 H84           -1.7314     6.2628    -1.0495 H       
  85 H85           -1.1206     8.6114    -0.6320 H       
  86 H86           -0.7523     9.3968     1.6725 H       
  87 H87           -0.9958     7.8338     3.5596 H       
  88 H88           -1.6148     5.4872     3.1427 H       
@<TRIPOS>BOND
   1    1    2 1
   2    1    5 1
   3    1    6 am
   4    2    3 1
   5    2    9 1
   6    2   46 1
   7    3    4 1
   8    3   47 1
   9    3   48 1
  10    4    5 1
  11    4   19 1
  12    4   49 1
  13    5   50 1
  14    5   51 1
  15    6    7 2
  16    6    8 1
  17    8   39 1
  18    9   10 1
  19    9   52 1
  20    9   53 1
  21   10   11 1
  22   10   54 1
  23   11   12 ar
  24   11   16 ar
  25   12   13 ar
  26   12   55 1
  27   13   14 ar
  28   13   17 1
  29   14   15 ar
  30   14   56 1
  31   15   16 ar
  32   15   57 1
  33   17   18 1
  34   18   58 1
  35   18   59 1
  36   18   60 1
  37   19   20 1
  38   20   21 1
  39   20   61 1
  40   20   62 1
  41   21   22 am
  42   21   23 2
  43   22   24 1
  44   22   63 1
  45   24   25 1
  46   24   64 1
  47   24   65 1
  48   25   26 1
  49   25   36 1
  50   25   66 1
  51   26   27 am
  52   26   67 1
  53   27   28 2
  54   27   29 1
  55   29   30 1
  56   29   34 1
  57   29   35 1
  58   30   31 1
  59   30   68 1
  60   30   69 1
  61   31   32 1
  62   31   70 1
  63   31   71 1
  64   32   33 1
  65   32   72 1
  66   32   73 1
  67   33   34 1
  68   33   74 1
  69   33   75 1
  70   34   76 1
  71   34   77 1
  72   35   78 1
  73   35   79 1
  74   35   80 1
  75   36   37 2
  76   36   38 1
  77   38   81 1
  78   39   40 1
  79   39   82 1
  80   39   83 1
  81   40   41 ar
  82   40   45 ar
  83   41   42 ar
  84   41   84 1
  85   42   43 ar
  86   42   85 1
  87   43   44 ar
  88   43   86 1
  89   44   45 ar
  90   44   87 1
  91   45   88 1

#	End of record

