#	Name: ASD01122014
#	Creating user name:	WinNT
#	Creation time:	15. 06. 2019 18:59

#	Modifying user name:	WinNT
#	Modification time:	15. 06. 2019 18:59

#	Program:	/corina/corina34_cracker 3.40 0067  02.08.2006

@<TRIPOS>MOLECULE
ASD01122014
  30   32    0    0    0
SMALL
NO_CHARGES


@<TRIPOS>ATOM
   1 C1            -0.0511     1.7924    -0.0204 C.2     
   2 S2             0.0357     0.0344    -0.0378 S.3     
   3 C3            -1.7222    -0.0593     0.0398 C.2     
   4 C4            -2.2148     1.2239     0.0716 C.2     
   5 N5            -1.2884     2.1728     0.0428 N.2     
   6 C6            -3.6539     1.5207     0.1376 C.2     
   7 C7            -4.2395     2.5072     0.9040 C.2     
   8 C8            -5.6137     2.4431     0.6701 C.2     
   9 C9            -5.8196     1.4185    -0.2319 C.2     
  10 O10           -4.6203     0.8802    -0.5432 O.3     
  11 C11           -2.5241    -1.2967     0.0657 C.ar    
  12 N12            1.0396     2.6418    -0.0621 N.pl3   
  13 C13           -2.2673    -2.3191    -0.8518 C.ar    
  14 C14           -3.0211    -3.4736    -0.8213 C.ar    
  15 C15           -4.0296    -3.6210     0.1148 C.ar    
  16 C16           -4.2897    -2.6129     1.0265 C.ar    
  17 C17           -3.5407    -1.4549     1.0114 C.ar    
  18 C18           -7.0738     1.0060    -0.7478 C.2     
  19 O19           -8.0921     1.5723    -0.3967 O.2     
  20 O20           -7.1386    -0.0150    -1.6283 O.3     
  21 H21           -3.7310     3.1977     1.5605 H       
  22 H22           -6.3714     3.0741     1.1108 H       
  23 H23            1.9373     2.2767    -0.1046 H       
  24 H24            0.9070     3.6026    -0.0489 H       
  25 H25           -1.4808    -2.2052    -1.5831 H       
  26 H26           -2.8240    -4.2644    -1.5299 H       
  27 H27           -4.6169    -4.5272     0.1337 H       
  28 H28           -5.0783    -2.7349     1.7541 H       
  29 H29           -3.7448    -0.6690     1.7235 H       
  30 H30           -8.0356    -0.2236    -1.9234 H       
@<TRIPOS>BOND
   1    1    2 1
   2    1   12 1
   3    1    5 2
   4    2    3 1
   5    3    4 2
   6    3   11 1
   7    4    5 1
   8    4    6 1
   9    6    7 2
  10    6   10 1
  11    7    8 1
  12    7   21 1
  13    8    9 2
  14    8   22 1
  15    9   10 1
  16    9   18 1
  17   11   13 ar
  18   11   17 ar
  19   12   23 1
  20   12   24 1
  21   13   14 ar
  22   13   25 1
  23   14   15 ar
  24   14   26 1
  25   15   16 ar
  26   15   27 1
  27   16   17 ar
  28   16   28 1
  29   17   29 1
  30   18   19 2
  31   18   20 1
  32   20   30 1

#	End of record

