#	Name: ASD00843249
#	Creating user name:	WinNT
#	Creation time:	15. 06. 2019 18:46

#	Modifying user name:	WinNT
#	Modification time:	15. 06. 2019 18:46

#	Program:	/corina/corina34_cracker 3.40 0067  02.08.2006

@<TRIPOS>MOLECULE
ASD00843249
  91   96    0    0    0
SMALL
NO_CHARGES


@<TRIPOS>ATOM
   1 N1             0.9859     1.0756    -0.3384 N.ar    
   2 C2             1.1491    -0.2125    -0.5900 C.ar    
   3 C3             0.9673    -1.1578     0.4116 C.ar    
   4 C4             0.6122    -0.7347     1.6803 C.ar    
   5 C5             0.4507     0.6260     1.9034 C.ar    
   6 C6             0.6476     1.5094     0.8610 C.ar    
   7 C7             1.1538    -2.6246     0.1202 C.3     
   8 C8             0.7586    -3.4582     1.3205 C.2     
   9 C9             0.3385    -3.0335    -1.1083 C.3     
  10 C10           -1.1027    -2.6415    -0.9079 C.2     
  11 N11           -2.0327    -3.0078    -1.8121 N.am    
  12 O12           -1.4258    -1.9964     0.0669 O.2     
  13 C13           -3.4235    -2.5440    -1.6948 C.3     
  14 C14           -3.8505    -1.9413    -3.0375 C.3     
  15 N15           -3.6096    -2.9182    -4.1078 N.3     
  16 C16           -2.1791    -3.2267    -4.2357 C.3     
  17 C17           -1.6823    -3.8771    -2.9456 C.3     
  18 C18           -4.1629    -2.4474    -5.3846 C.3     
  19 C19           -3.7859    -3.4282    -6.4983 C.3     
  20 C20           -4.4158    -2.9650    -7.8140 C.3     
  21 N21           -5.8753    -2.9037    -7.6645 N.3     
  22 C22           -6.2631    -1.9331    -6.6330 C.3     
  23 C23           -5.6884    -2.3655    -5.2821 C.3     
  24 H24           -6.3204    -2.6927    -8.5451 H       
  25 O25           -0.3397    -3.5084     1.8326 O.2     
  26 N26            1.8533    -4.1317     1.7122 N.am    
  27 C27            2.6175    -2.9423    -0.0824 C.ar    
  28 C28            2.9611    -3.8517     0.9104 C.ar    
  29 C29            3.5499    -2.5126    -0.9996 C.ar    
  30 C30            4.8491    -2.9881    -0.9390 C.ar    
  31 C31            5.2046    -3.8955     0.0463 C.ar    
  32 C32            4.2691    -4.3270     0.9672 C.ar    
  33 Cl33           6.0283    -2.4497    -2.0936 Cl      
  34 F34            6.4717    -4.3602     0.1068 F       
  35 C35            1.4781    -6.7744     2.3829 C.ar    
  36 C36            0.2164    -7.0152     1.8580 C.ar    
  37 C37            2.4179    -7.7870     2.4181 C.ar    
  38 C38            2.1041    -9.0410     1.9306 C.ar    
  39 C39            0.8435    -9.2869     1.4046 C.ar    
  40 C40           -0.1010    -8.2730     1.3686 C.ar    
  41 O41            0.5352   -10.5208     0.9256 O.3     
  42 O42           -0.7074    -6.0191     1.8241 O.3     
  43 C43            1.5569   -11.5174     0.9949 C.3     
  44 C44           -1.9854    -6.3382     1.2699 C.3     
  45 C45           -2.8848    -5.1014     1.3168 C.3     
  46 O46            1.4969    -0.6145    -1.8383 O.3     
  47 C47            1.6262     0.4016    -2.8346 C.3     
  48 C48            2.1166    -0.2250    -4.1414 C.3     
  49 F49            3.3152    -0.9084    -3.9099 F       
  50 F50            1.1539    -1.1206    -4.6193 F       
  51 S51            1.8847    -5.1743     2.9984 S.o2    
  52 O52            3.2377    -5.2414     3.4277 O.2     
  53 O53            0.8164    -4.7896     3.8529 O.2     
  54 H54            0.4637    -1.4467     2.4787 H       
  55 H55            0.1736     0.9896     2.8819 H       
  56 H56            0.5236     2.5689     1.0294 H       
  57 H57            0.7330    -2.5292    -1.9904 H       
  58 H58            0.4057    -4.1127    -1.2461 H       
  59 H59           -4.0707    -3.3859    -1.4490 H       
  60 H60           -3.4921    -1.7858    -0.9148 H       
  61 H61           -4.9112    -1.6929    -3.0037 H       
  62 H62           -3.2711    -1.0387    -3.2317 H       
  63 H63           -2.0277    -3.9104    -5.0710 H       
  64 H64           -1.6230    -2.3062    -4.4133 H       
  65 H65           -0.6005    -4.0028    -2.9919 H       
  66 H66           -2.1613    -4.8477    -2.8168 H       
  67 H67           -3.7589    -1.4616    -5.6152 H       
  68 H68           -2.7016    -3.4586    -6.6049 H       
  69 H69           -4.1556    -4.4225    -6.2481 H       
  70 H70           -4.0351    -1.9764    -8.0707 H       
  71 H71           -4.1611    -3.6690    -8.6062 H       
  72 H72           -5.8738    -0.9494    -6.8952 H       
  73 H73           -7.3502    -1.8877    -6.5674 H       
  74 H74           -6.0881    -3.3431    -5.0127 H       
  75 H75           -5.9633    -1.6366    -4.5196 H       
  76 H76            3.2682    -1.8056    -1.7660 H       
  77 H77            4.5528    -5.0341     1.7328 H       
  78 H78            3.3994    -7.5977     2.8270 H       
  79 H79            2.8405    -9.8306     1.9585 H       
  80 H80           -1.0826    -8.4625     0.9600 H       
  81 H81            2.4242   -11.1892     0.4221 H       
  82 H82            1.8452   -11.6706     2.0349 H       
  83 H83            1.1808   -12.4528     0.5807 H       
  84 H84           -1.8629    -6.6595     0.2356 H       
  85 H85           -2.4419    -7.1415     1.8482 H       
  86 H86           -3.0073    -4.7802     2.3511 H       
  87 H87           -2.4283    -4.2981     0.7384 H       
  88 H88           -3.8596    -5.3448     0.8941 H       
  89 H89            0.6580     0.8743    -2.9993 H       
  90 H90            2.3437     1.1503    -2.4990 H       
  91 H91            2.2822     0.5588    -4.8805 H       
@<TRIPOS>BOND
   1    1    2 ar
   2    1    6 ar
   3    2    3 ar
   4    2   46 1
   5    3    4 ar
   6    3    7 1
   7    4    5 ar
   8    4   54 1
   9    5    6 ar
  10    5   55 1
  11    6   56 1
  12    7    8 1
  13    7    9 1
  14    7   27 1
  15    8   25 2
  16    8   26 am
  17    9   10 1
  18    9   57 1
  19    9   58 1
  20   10   11 am
  21   10   12 2
  22   11   13 1
  23   11   17 1
  24   13   14 1
  25   13   59 1
  26   13   60 1
  27   14   15 1
  28   14   61 1
  29   14   62 1
  30   15   16 1
  31   15   18 1
  32   16   17 1
  33   16   63 1
  34   16   64 1
  35   17   65 1
  36   17   66 1
  37   18   19 1
  38   18   23 1
  39   18   67 1
  40   19   20 1
  41   19   68 1
  42   19   69 1
  43   20   21 1
  44   20   70 1
  45   20   71 1
  46   21   22 1
  47   21   24 1
  48   22   23 1
  49   22   72 1
  50   22   73 1
  51   23   74 1
  52   23   75 1
  53   26   51 am
  54   26   28 1
  55   27   28 ar
  56   27   29 ar
  57   28   32 ar
  58   29   30 ar
  59   29   76 1
  60   30   31 ar
  61   30   33 1
  62   31   32 ar
  63   31   34 1
  64   32   77 1
  65   35   36 ar
  66   35   37 ar
  67   35   51 1
  68   36   42 1
  69   36   40 ar
  70   37   38 ar
  71   37   78 1
  72   38   39 ar
  73   38   79 1
  74   39   40 ar
  75   39   41 1
  76   40   80 1
  77   41   43 1
  78   42   44 1
  79   43   81 1
  80   43   82 1
  81   43   83 1
  82   44   45 1
  83   44   84 1
  84   44   85 1
  85   45   86 1
  86   45   87 1
  87   45   88 1
  88   46   47 1
  89   47   48 1
  90   47   89 1
  91   47   90 1
  92   48   49 1
  93   48   50 1
  94   48   91 1
  95   51   52 2
  96   51   53 2

#	End of record

