#	Name: ASD01912493
#	Creating user name:	WinNT
#	Creation time:	15. 06. 2019 19:59

#	Modifying user name:	WinNT
#	Modification time:	15. 06. 2019 19:59

#	Program:	/corina/corina34_cracker 3.40 0067  02.08.2006

@<TRIPOS>MOLECULE
ASD01912493
  43   46    0    0    0
SMALL
NO_CHARGES


@<TRIPOS>ATOM
   1 C1            -0.0472     1.4673    -0.0235 C.2     
   2 O2            -0.0643     0.1323    -0.0893 O.3     
   3 N3            -1.2090    -0.2687    -0.0943 N.2     
   4 C4            -2.0387     0.7401    -0.0337 C.2     
   5 N5            -1.2937     1.8673     0.0177 N.2     
   6 C6            -3.5209     0.6621    -0.0184 C.ar    
   7 C7            -4.1561    -0.5764    -0.0708 C.ar    
   8 C8            -5.5360    -0.6430    -0.0563 C.ar    
   9 C9            -6.2862     0.5183     0.0102 C.ar    
  10 C10           -5.6594     1.7503     0.0625 C.ar    
  11 C11           -4.2815     1.8274     0.0543 C.ar    
  12 Cl12          -6.3301    -2.1853    -0.1222 Cl      
  13 C13            1.1764     2.3465     0.0046 C.3     
  14 C14            2.1065     2.0762     1.2013 C.3     
  15 N15            3.2175     2.2072     0.2388 N.am    
  16 C16            2.3285     1.8337    -0.8784 C.3     
  17 C17            4.5207     2.5360     0.3396 C.2     
  18 N18            5.3246     2.4423    -0.7381 N.am    
  19 O19            4.9710     2.9172     1.4027 O.2     
  20 C20            6.7062     2.9396    -0.6869 C.3     
  21 C21            7.6513     1.8159    -1.1238 C.3     
  22 C22            7.2203     1.2977    -2.4979 C.3     
  23 C23            5.8023     0.7290    -2.4087 C.3     
  24 C24            4.8380     1.8353    -1.9845 C.3     
  25 F25            5.4205     0.2284    -3.6580 F       
  26 H26           -3.5711    -1.4827    -0.1231 H       
  27 H27           -7.3647     0.4624     0.0210 H       
  28 H28           -6.2495     2.6533     0.1143 H       
  29 H29           -3.7936     2.7900     0.0955 H       
  30 H30            0.9451     3.4015    -0.1419 H       
  31 H31            2.0867     2.8597     1.9588 H       
  32 H32            2.0038     1.0752     1.6201 H       
  33 H33            2.2911     0.7614    -1.0705 H       
  34 H34            2.4860     2.4236    -1.7814 H       
  35 H35            6.8137     3.7900    -1.3603 H       
  36 H36            6.9473     3.2445     0.3314 H       
  37 H37            8.6698     2.1995    -1.1828 H       
  38 H38            7.6095     1.0030    -0.3990 H       
  39 H39            7.2385     2.1167    -3.2169 H       
  40 H40            7.9058     0.5148    -2.8221 H       
  41 H41            5.7780    -0.0737    -1.6717 H       
  42 H42            3.8459     1.4135    -1.8239 H       
  43 H43            4.7918     2.5977    -2.7621 H       
@<TRIPOS>BOND
   1    1    2 1
   2    1   13 1
   3    1    5 2
   4    2    3 1
   5    3    4 2
   6    4    5 1
   7    4    6 1
   8    6    7 ar
   9    6   11 ar
  10    7    8 ar
  11    7   26 1
  12    8    9 ar
  13    8   12 1
  14    9   10 ar
  15    9   27 1
  16   10   11 ar
  17   10   28 1
  18   11   29 1
  19   13   14 1
  20   13   16 1
  21   13   30 1
  22   14   15 1
  23   14   31 1
  24   14   32 1
  25   15   16 1
  26   15   17 am
  27   16   33 1
  28   16   34 1
  29   17   18 am
  30   17   19 2
  31   18   20 1
  32   18   24 1
  33   20   21 1
  34   20   35 1
  35   20   36 1
  36   21   22 1
  37   21   37 1
  38   21   38 1
  39   22   23 1
  40   22   39 1
  41   22   40 1
  42   23   24 1
  43   23   25 1
  44   23   41 1
  45   24   42 1
  46   24   43 1

#	End of record

