#	Name: ASD01150297
#	Creating user name:	WinNT
#	Creation time:	15. 06. 2019 19:04

#	Modifying user name:	WinNT
#	Modification time:	15. 06. 2019 19:04

#	Program:	/corina/corina34_cracker 3.40 0067  02.08.2006

@<TRIPOS>MOLECULE
ASD01150297
  62   64    0    0    0
SMALL
NO_CHARGES


@<TRIPOS>ATOM
   1 C1            -0.0158     1.3123     0.0093 C.2     
   2 N2             0.0021    -0.0041     0.0020 N.2     
   3 C3            -1.2465    -0.4792     0.0114 C.2     
   4 C4            -2.1134     0.6065     0.0255 C.2     
   5 N5            -1.3045     1.7451     0.0298 N.pl3   
   6 N6             1.0958     2.1231     0.0030 N.3     
   7 C7             2.3292     1.3253    -0.0137 C.3     
   8 C8             1.0586     3.0586    -1.1289 C.3     
   9 C9            -1.7378     3.0772     0.0432 C.ar    
  10 N10           -1.6127    -1.8197     0.0070 N.am    
  11 C11           -3.5223     0.5668     0.0380 C.2     
  12 O12           -4.2300     1.7168     0.0505 O.3     
  13 O13           -4.1013    -0.5045     0.0375 O.2     
  14 C14           -5.6544     1.6019     0.0628 C.3     
  15 C15           -6.0934     0.8354     1.3120 C.3     
  16 C16           -6.2786     2.9987     0.0759 C.3     
  17 C17           -6.1160     0.8487    -1.1864 C.3     
  18 C18           -1.4634     3.8871     1.1373 C.ar    
  19 C19           -1.8921     5.2000     1.1476 C.ar    
  20 C20           -2.5938     5.7082     0.0699 C.ar    
  21 C21           -2.8685     4.9042    -1.0211 C.ar    
  22 C22           -2.4377     3.5921    -1.0399 C.ar    
  23 C23           -0.6644    -2.7773    -0.0075 C.2     
  24 C24           -1.0539    -4.2030    -0.0122 C.ar    
  25 O25            0.5112    -2.4684    -0.0167 O.2     
  26 C26           -2.4029    -4.5612    -0.0016 C.ar    
  27 C27           -2.7596    -5.8940    -0.0060 C.ar    
  28 C28           -1.7837    -6.8744    -0.0204 C.ar    
  29 C29           -0.4444    -6.5261    -0.0304 C.ar    
  30 C30           -0.0741    -5.1975    -0.0329 C.ar    
  31 C31           -2.1808    -8.3281    -0.0246 C.3     
  32 C32            0.6118    -7.6010    -0.0450 C.3     
  33 H33            2.3465     0.7017    -0.9074 H       
  34 H34            3.1923     1.9909    -0.0183 H       
  35 H35            2.3639     0.6915     0.8724 H       
  36 H36            0.1696     3.6849    -1.0537 H       
  37 H37            1.9487     3.6875    -1.1100 H       
  38 H38            1.0299     2.4977    -2.0631 H       
  39 H39           -2.5508    -2.0662     0.0143 H       
  40 H40           -5.7645     1.3720     2.2019 H       
  41 H41           -7.1799     0.7477     1.3213 H       
  42 H42           -5.6487    -0.1597     1.3027 H       
  43 H43           -5.9658     3.5448    -0.8141 H       
  44 H44           -7.3650     2.9111     0.0852 H       
  45 H45           -5.9497     3.5354     0.9658 H       
  46 H46           -5.6713    -0.1464    -1.1957 H       
  47 H47           -7.2024     0.7610    -1.1770 H       
  48 H48           -5.8032     1.3948    -2.0763 H       
  49 H49           -0.9158     3.4906     1.9795 H       
  50 H50           -1.6793     5.8303     1.9984 H       
  51 H51           -2.9282     6.7351     0.0804 H       
  52 H52           -3.4171     5.3039    -1.8612 H       
  53 H53           -2.6523     2.9648    -1.8924 H       
  54 H54           -3.1657    -3.7968     0.0103 H       
  55 H55           -3.8030    -6.1725     0.0021 H       
  56 H56            0.9715    -4.9270    -0.0407 H       
  57 H57           -2.2860    -8.6730    -1.0532 H       
  58 H58           -1.4133    -8.9159     0.4790 H       
  59 H59           -3.1303    -8.4469     0.4974 H       
  60 H60            0.8575    -7.8550    -1.0761 H       
  61 H61            1.5057    -7.2389     0.4628 H       
  62 H62            0.2362    -8.4865     0.4678 H       
@<TRIPOS>BOND
   1    1    2 2
   2    1    6 1
   3    1    5 1
   4    2    3 1
   5    3    4 2
   6    3   10 1
   7    4    5 1
   8    4   11 1
   9    5    9 1
  10    6    7 1
  11    6    8 1
  12    7   33 1
  13    7   34 1
  14    7   35 1
  15    8   36 1
  16    8   37 1
  17    8   38 1
  18    9   18 ar
  19    9   22 ar
  20   10   23 am
  21   10   39 1
  22   11   12 1
  23   11   13 2
  24   12   14 1
  25   14   15 1
  26   14   16 1
  27   14   17 1
  28   15   40 1
  29   15   41 1
  30   15   42 1
  31   16   43 1
  32   16   44 1
  33   16   45 1
  34   17   46 1
  35   17   47 1
  36   17   48 1
  37   18   19 ar
  38   18   49 1
  39   19   20 ar
  40   19   50 1
  41   20   21 ar
  42   20   51 1
  43   21   22 ar
  44   21   52 1
  45   22   53 1
  46   23   24 1
  47   23   25 2
  48   24   26 ar
  49   24   30 ar
  50   26   27 ar
  51   26   54 1
  52   27   28 ar
  53   27   55 1
  54   28   29 ar
  55   28   31 1
  56   29   30 ar
  57   29   32 1
  58   30   56 1
  59   31   57 1
  60   31   58 1
  61   31   59 1
  62   32   60 1
  63   32   61 1
  64   32   62 1

#	End of record

