#	Name: ASD01948187
#	Creating user name:	WinNT
#	Creation time:	15. 06. 2019 20:13

#	Modifying user name:	WinNT
#	Modification time:	15. 06. 2019 20:13

#	Program:	/corina/corina34_cracker 3.40 0067  02.08.2006

@<TRIPOS>MOLECULE
ASD01948187
  46   50    0    0    0
SMALL
NO_CHARGES


@<TRIPOS>ATOM
   1 C1             0.8125     1.1003    -0.5756 C.ar    
   2 C2             0.8785    -0.2769    -0.8325 C.ar    
   3 C3            -0.1885    -1.1123    -0.4859 C.ar    
   4 C4            -1.3110    -0.5799     0.1113 C.ar    
   5 C5            -1.3843     0.7886     0.3696 C.ar    
   6 C6            -0.3255     1.6266     0.0333 C.ar    
   7 F7            -2.3424    -1.3854     0.4467 F       
   8 O8             1.9679     1.6452    -1.0102 O.3     
   9 C9             2.7750     0.7044    -1.5315 C.2     
  10 C10            2.1863    -0.4970    -1.4623 C.2     
  11 F11           -0.1192    -2.4381    -0.7363 F       
  12 N12           -0.6948     2.9179     0.4115 N.am    
  13 S13            0.2240     4.2829     0.2242 S.o2    
  14 O14           -0.2926     5.1883     1.1899 O.2     
  15 O15            1.5641     3.8164     0.3003 O.2     
  16 C16           -0.1558     4.8573    -1.4541 C.3     
  17 C17            0.5163     6.1671    -1.8711 C.3     
  18 C18           -0.0176     7.2963    -1.0280 C.2     
  19 C19            0.8042     8.0291    -0.3183 C.2     
  20 C20           -0.3628     3.7942    -2.5347 C.3     
  21 C21           -1.5600     4.5805    -1.9947 C.3     
  22 N22           -2.3675     1.5934     0.9479 N.am    
  23 C23           -1.9256     2.8649     0.9542 C.2     
  24 C24           -3.6056     1.1528     1.4363 C.ar    
  25 C25           -4.7321     1.1983     0.6219 C.ar    
  26 C26           -3.7085     0.6651     2.7312 C.ar    
  27 C27           -4.9299     0.2315     3.2103 C.ar    
  28 C28           -6.0502     0.2823     2.4010 C.ar    
  29 C29           -5.9514     0.7629     1.1073 C.ar    
  30 I30           -7.8991    -0.3772     3.1327 I       
  31 F31           -4.6353     1.6676    -0.6412 F       
  32 O32           -2.5416     3.8196     1.3906 O.2     
  33 H33            3.7548     0.8904    -1.9462 H       
  34 H34            2.5925    -1.4386    -1.8012 H       
  35 H35            1.5936     6.0844    -1.7275 H       
  36 H36            0.3039     6.3660    -2.9215 H       
  37 H37           -1.0778     7.5014    -1.0089 H       
  38 H38            1.8704     7.8776    -0.3997 H       
  39 H39            0.4155     8.7848     0.3482 H       
  40 H40           -0.0206     4.0280    -3.5428 H       
  41 H41           -0.2709     2.7496    -2.2373 H       
  42 H42           -2.2557     4.0529    -1.3421 H       
  43 H43           -2.0051     5.3312    -2.6477 H       
  44 H44           -2.8344     0.6241     3.3642 H       
  45 H45           -5.0098    -0.1481     4.2182 H       
  46 H46           -6.8279     0.8014     0.4774 H       
@<TRIPOS>BOND
   1    1    2 ar
   2    1    8 1
   3    1    6 ar
   4    2    3 ar
   5    2   10 1
   6    3    4 ar
   7    3   11 1
   8    4    5 ar
   9    4    7 1
  10    5    6 ar
  11    5   22 1
  12    6   12 1
  13    8    9 1
  14    9   10 2
  15    9   33 1
  16   10   34 1
  17   12   13 am
  18   12   23 am
  19   13   14 2
  20   13   15 2
  21   13   16 1
  22   16   17 1
  23   16   20 1
  24   16   21 1
  25   17   18 1
  26   17   35 1
  27   17   36 1
  28   18   19 2
  29   18   37 1
  30   19   38 1
  31   19   39 1
  32   20   21 1
  33   20   40 1
  34   20   41 1
  35   21   42 1
  36   21   43 1
  37   22   23 am
  38   22   24 1
  39   23   32 2
  40   24   25 ar
  41   24   26 ar
  42   25   31 1
  43   25   29 ar
  44   26   27 ar
  45   26   44 1
  46   27   28 ar
  47   27   45 1
  48   28   29 ar
  49   28   30 1
  50   29   46 1

#	End of record

