#	Name: ASD01916076
#	Creating user name:	WinNT
#	Creation time:	15. 06. 2019 20:06

#	Modifying user name:	WinNT
#	Modification time:	15. 06. 2019 20:06

#	Program:	/corina/corina34_cracker 3.40 0067  02.08.2006

@<TRIPOS>MOLECULE
ASD01916076
  44   47    0    0    0
SMALL
NO_CHARGES


@<TRIPOS>ATOM
   1 C1            -0.0169     1.3974     0.0097 C.ar    
   2 C2             0.0021    -0.0041     0.0020 C.ar    
   3 C3            -1.2070    -0.6758     0.0095 C.ar    
   4 C4            -2.3852     0.0496     0.0241 C.ar    
   5 C5            -3.7040    -0.6796     0.0323 C.3     
   6 C6             1.2059     2.1425     0.0021 C.1     
   7 C7             2.2084     2.7534    -0.0042 C.1     
   8 C8             3.4313     3.4985    -0.0119 C.ar    
   9 C9             3.4022     4.8955    -0.0041 C.ar    
  10 C10            5.8331     3.5564    -0.0288 C.ar    
  11 C11            4.5840     5.6065    -0.0116 C.ar    
  12 N12           -2.3736     1.3687     0.0316 N.ar    
  13 C13           -1.2496     2.0547     0.0192 C.ar    
  14 C14            4.6594     2.8321    -0.0214 C.ar    
  15 C15            5.7965     4.9397    -0.0269 C.ar    
  16 C16           -3.6012    -1.9637    -0.7585 C.2     
  17 N17           -3.5078    -3.0135     0.0724 N.am    
  18 C18           -3.5537    -2.5999     1.4796 C.3     
  19 C19           -4.0598    -1.1315     1.4631 C.3     
  20 H20           -4.4911    -0.0446    -0.3745 H       
  21 C21           -4.6365    -3.4179     2.2067 C.3     
  22 C22           -5.7587    -2.4319     2.5891 C.3     
  23 C23           -5.5952    -1.2622     1.5869 C.3     
  24 H24           -3.6082    -0.5085     2.2352 H       
  25 H25           -2.5777    -2.6861     1.9574 H       
  26 C26           -3.3760    -4.4034    -0.3715 C.3     
  27 O27           -3.6035    -2.0351    -1.9692 O.2     
  28 H28            0.9365    -0.5454    -0.0098 H       
  29 H29           -1.2312    -1.7555     0.0035 H       
  30 H30            2.4566     5.4173     0.0074 H       
  31 H31            6.7831     3.0427    -0.0404 H       
  32 H32            4.5631     6.6863    -0.0060 H       
  33 H33           -1.2809     3.1342     0.0258 H       
  34 H34            4.6896     1.7525    -0.0227 H       
  35 H35            6.7187     5.5017    -0.0327 H       
  36 H36           -5.0283    -4.1896     1.5441 H       
  37 H37           -4.2192    -3.8738     3.1046 H       
  38 H38           -6.7354    -2.9013     2.4714 H       
  39 H39           -5.6246    -2.0794     3.6118 H       
  40 H40           -6.0299    -0.3465     1.9877 H       
  41 H41           -6.0405    -1.5133     0.6242 H       
  42 H42           -3.3667    -4.4375    -1.4610 H       
  43 H43           -2.4455    -4.8210     0.0130 H       
  44 H44           -4.2178    -4.9858     0.0030 H       
@<TRIPOS>BOND
   1    1    2 ar
   2    1    6 1
   3    1   13 ar
   4    2    3 ar
   5    2   28 1
   6    3    4 ar
   7    3   29 1
   8    4   12 ar
   9    4    5 1
  10    5   16 1
  11    5   19 1
  12    5   20 1
  13    6    7 3
  14    7    8 1
  15    8    9 ar
  16    8   14 ar
  17    9   11 ar
  18    9   30 1
  19   10   15 ar
  20   10   14 ar
  21   10   31 1
  22   11   15 ar
  23   11   32 1
  24   12   13 ar
  25   13   33 1
  26   14   34 1
  27   15   35 1
  28   16   17 am
  29   16   27 2
  30   17   18 1
  31   17   26 1
  32   18   19 1
  33   18   21 1
  34   18   25 1
  35   19   24 1
  36   19   23 1
  37   21   22 1
  38   21   36 1
  39   21   37 1
  40   22   23 1
  41   22   38 1
  42   22   39 1
  43   23   40 1
  44   23   41 1
  45   26   42 1
  46   26   43 1
  47   26   44 1

#	End of record

