#	Name: ASD01150669
#	Creating user name:	WinNT
#	Creation time:	15. 06. 2019 19:04

#	Modifying user name:	WinNT
#	Modification time:	15. 06. 2019 19:04

#	Program:	/corina/corina34_cracker 3.40 0067  02.08.2006

@<TRIPOS>MOLECULE
ASD01150669
  41   43    0    0    0
SMALL
NO_CHARGES


@<TRIPOS>ATOM
   1 C1             0.3307     1.5350     0.7073 C.ar    
   2 C2             0.4051     0.1881     1.0042 C.ar    
   3 C3             2.0177    -0.1133    -0.7484 C.ar    
   4 C4             1.9447     1.2392    -1.0499 C.ar    
   5 C5             1.1006     2.0649    -0.3211 C.ar    
   6 N6             1.0244     3.4296    -0.6217 N.am    
   7 C7            -0.1796     4.0101    -0.7697 C.2     
   8 N8            -0.2871     5.3204    -1.0593 N.am    
   9 C9             0.8230     6.0731    -1.2052 C.2     
  10 C10            2.1384     5.4452    -1.0444 C.2     
  11 N11            2.2025     4.1735    -0.7586 N.2     
  12 O12            0.7339     7.2584    -1.4675 O.2     
  13 C13           -1.6103     5.9292    -1.2166 C.3     
  14 O14           -1.1866     3.3411    -0.6403 O.2     
  15 C15           -2.0887     6.4427     0.1170 C.ar    
  16 Br16           3.7186     6.4649    -1.2414 Br      
  17 C17            1.2451    -0.6367     0.2805 C.ar    
  18 N18            2.8680    -0.9492    -1.4806 N.am    
  19 C19            4.0551    -0.4855    -1.9192 C.2     
  20 O20            4.3505     0.6789    -1.7522 O.2     
  21 C21            5.0153    -1.4139    -2.6171 C.3     
  22 C22           -1.7946     7.7364     0.5052 C.ar    
  23 C23           -2.2331     8.2079     1.7282 C.ar    
  24 C24           -2.9666     7.3847     2.5640 C.ar    
  25 C25           -3.2606     6.0900     2.1750 C.ar    
  26 C26           -2.8264     5.6215     0.9493 C.ar    
  27 Cl27          -3.5172     7.9760     4.1005 Cl      
  28 H28           -0.3299     2.1762     1.2720 H       
  29 H29           -0.1943    -0.2213     1.8039 H       
  30 H30            2.5439     1.6484    -1.8498 H       
  31 H31           -1.5478     6.7567    -1.9233 H       
  32 H32           -2.3112     5.1834    -1.5915 H       
  33 H33            1.3012    -1.6893     0.5154 H       
  34 H34            2.6031    -1.8624    -1.6726 H       
  35 H35            4.5436    -1.8185    -3.5126 H       
  36 H36            5.9139    -0.8640    -2.8968 H       
  37 H37            5.2830    -2.2307    -1.9469 H       
  38 H38           -1.2217     8.3788    -0.1471 H       
  39 H39           -2.0029     9.2185     2.0316 H       
  40 H40           -3.8332     5.4470     2.8269 H       
  41 H41           -3.0559     4.6109     0.6454 H       
@<TRIPOS>BOND
   1    1    2 ar
   2    1    5 ar
   3    1   28 1
   4    2   17 ar
   5    2   29 1
   6    3    4 ar
   7    3   18 1
   8    3   17 ar
   9    4    5 ar
  10    4   30 1
  11    5    6 1
  12    6    7 am
  13    6   11 1
  14    7    8 am
  15    7   14 2
  16    8    9 am
  17    8   13 1
  18    9   10 1
  19    9   12 2
  20   10   11 2
  21   10   16 1
  22   13   15 1
  23   13   31 1
  24   13   32 1
  25   15   22 ar
  26   15   26 ar
  27   17   33 1
  28   18   19 am
  29   18   34 1
  30   19   20 2
  31   19   21 1
  32   21   35 1
  33   21   36 1
  34   21   37 1
  35   22   23 ar
  36   22   38 1
  37   23   24 ar
  38   23   39 1
  39   24   25 ar
  40   24   27 1
  41   25   26 ar
  42   25   40 1
  43   26   41 1

#	End of record

