#	Name: ASD03430588
#	Creating user name:	WinNT
#	Creation time:	15. 06. 2019 20:41

#	Modifying user name:	WinNT
#	Modification time:	15. 06. 2019 20:41

#	Program:	/corina/corina34_cracker 3.40 0067  02.08.2006

@<TRIPOS>MOLECULE
ASD03430588
  57   62    0    0    0
SMALL
NO_CHARGES


@<TRIPOS>ATOM
   1 N1            -0.0157     1.4931     0.4900 N.am    
   2 C2             0.0409     0.2262     0.9343 C.2     
   3 C3             1.4804    -0.0491     1.3135 C.3     
   4 C4             2.1946     1.2482     1.0114 C.ar    
   5 C5             3.5071     1.6451     1.1353 C.ar    
   6 C6             3.8779     2.9281     0.7696 C.ar    
   7 C7             2.9264     3.8062     0.2810 C.ar    
   8 C8             1.6109     3.4104     0.1567 C.ar    
   9 C9             1.2307     2.1204     0.5223 C.ar    
  10 O10           -0.8870    -0.5505     1.0165 O.2     
  11 O11            1.8755    -1.3110     6.7980 O.3     
  12 C12            1.7721    -0.2282     7.7289 C.3     
  13 C13            0.5772     0.6440     7.3204 C.3     
  14 O14            0.8114     1.1322     5.9950 O.3     
  15 C15            1.2445     0.2248     5.0761 C.ar    
  16 C16            1.7778    -0.9945     5.4778 C.ar    
  17 C17            1.1492     0.5266     3.7263 C.ar    
  18 C18            1.5860    -0.3809     2.7797 C.ar    
  19 C19            2.1208    -1.5966     3.1781 C.ar    
  20 C20            2.2165    -1.9031     4.5269 C.ar    
  21 O21            2.5509    -2.4884     2.2460 O.3     
  22 C22           -1.2434     2.1395     0.0197 C.3     
  23 C23           -0.9991     2.7579    -1.3327 C.ar    
  24 C24           -1.5151     4.0066    -1.6251 C.ar    
  25 C25           -1.2911     4.5738    -2.8656 C.ar    
  26 C26           -0.5508     3.8925    -3.8136 C.ar    
  27 C27           -0.0341     2.6442    -3.5209 C.ar    
  28 C28           -0.2544     2.0789    -2.2789 C.ar    
  29 C29           -2.3418     1.1134    -0.0881 C.ar    
  30 C30           -3.4805     1.2359     0.6861 C.ar    
  31 C31           -4.4880     0.2947     0.5873 C.ar    
  32 C32           -4.3571    -0.7688    -0.2861 C.ar    
  33 C33           -3.2189    -0.8908    -1.0609 C.ar    
  34 C34           -2.2132     0.0528    -0.9652 C.ar    
  35 Br35           5.6790     3.4791     0.9380 Br      
  36 H36            1.8868    -0.8588     0.7075 H       
  37 H37            4.2464     0.9567     1.5174 H       
  38 H38            3.2153     4.8069    -0.0043 H       
  39 H39            0.8741     4.1015    -0.2251 H       
  40 H40            1.6142    -0.6209     8.7334 H       
  41 H41            2.6858     0.3656     7.7052 H       
  42 H42           -0.3355     0.0484     7.3369 H       
  43 H43            0.4818     1.4830     8.0097 H       
  44 H44            0.7333     1.4731     3.4138 H       
  45 H45            2.6333    -2.8499     4.8370 H       
  46 H46            3.4805    -2.3839     2.0013 H       
  47 H47           -1.5389     2.9154     0.7260 H       
  48 H48           -2.0934     4.5389    -0.8844 H       
  49 H49           -1.6947     5.5491    -3.0943 H       
  50 H50           -0.3764     4.3354    -4.7831 H       
  51 H51            0.5440     2.1118    -4.2617 H       
  52 H52            0.1523     1.1052    -2.0489 H       
  53 H53           -3.5827     2.0668     1.3684 H       
  54 H54           -5.3773     0.3900     1.1926 H       
  55 H55           -5.1440    -1.5045    -0.3628 H       
  56 H56           -3.1165    -1.7219    -1.7430 H       
  57 H57           -1.3255    -0.0405    -1.5733 H       
@<TRIPOS>BOND
   1    1    2 am
   2    1    9 1
   3    1   22 1
   4    2    3 1
   5    2   10 2
   6    3    4 1
   7    3   18 1
   8    3   36 1
   9    4    5 ar
  10    4    9 ar
  11    5    6 ar
  12    5   37 1
  13    6    7 ar
  14    6   35 1
  15    7    8 ar
  16    7   38 1
  17    8    9 ar
  18    8   39 1
  19   11   12 1
  20   11   16 1
  21   12   13 1
  22   12   40 1
  23   12   41 1
  24   13   14 1
  25   13   42 1
  26   13   43 1
  27   14   15 1
  28   15   16 ar
  29   15   17 ar
  30   16   20 ar
  31   17   18 ar
  32   17   44 1
  33   18   19 ar
  34   19   20 ar
  35   19   21 1
  36   20   45 1
  37   21   46 1
  38   22   23 1
  39   22   29 1
  40   22   47 1
  41   23   24 ar
  42   23   28 ar
  43   24   25 ar
  44   24   48 1
  45   25   26 ar
  46   25   49 1
  47   26   27 ar
  48   26   50 1
  49   27   28 ar
  50   27   51 1
  51   28   52 1
  52   29   30 ar
  53   29   34 ar
  54   30   31 ar
  55   30   53 1
  56   31   32 ar
  57   31   54 1
  58   32   33 ar
  59   32   55 1
  60   33   34 ar
  61   33   56 1
  62   34   57 1

#	End of record

