#	Name: ASD01230746
#	Creating user name:	WinNT
#	Creation time:	15. 06. 2019 19:15

#	Modifying user name:	WinNT
#	Modification time:	15. 06. 2019 19:15

#	Program:	/corina/corina34_cracker 3.40 0067  02.08.2006

@<TRIPOS>MOLECULE
ASD01230746
  33   34    0    0    0
SMALL
NO_CHARGES


@<TRIPOS>ATOM
   1 C1            -0.0169     1.3981     0.0097 C.ar    
   2 C2             0.0021    -0.0041     0.0020 C.ar    
   3 C3             1.2324    -0.6605    -0.0132 C.ar    
   4 C4             2.3882     0.1054    -0.0201 C.ar    
   5 C5             2.2901     1.4830    -0.0118 C.ar    
   6 N6             1.1145     2.0833     0.0026 N.ar    
   7 N7            -1.2310     2.0713     0.0191 N.pl3   
   8 C8            -1.2643    -0.7756     0.0104 C.ar    
   9 C9            -1.4664    -1.7965    -0.9176 C.ar    
  10 C10           -2.6465    -2.5130    -0.9065 C.ar    
  11 C11           -3.6317    -2.2168     0.0288 C.ar    
  12 C12           -3.4319    -1.2014     0.9526 C.ar    
  13 C13           -2.2523    -0.4855     0.9496 C.ar    
  14 O14           -4.7931    -2.9232     0.0377 O.3     
  15 C15           -5.7620    -2.5662     1.0256 C.3     
  16 C16           -6.9926    -3.4637     0.8807 C.3     
  17 C17           -8.0300    -3.0815     1.9383 C.3     
  18 F18           -2.8442    -3.5022    -1.8052 F       
  19 H19            1.2837    -1.7392    -0.0192 H       
  20 H20            3.3572    -0.3714    -0.0316 H       
  21 H21            3.1905     2.0794    -0.0172 H       
  22 H22           -2.0626     1.5719     0.0203 H       
  23 H23           -1.2478     3.0412     0.0245 H       
  24 H24           -0.7011    -2.0262    -1.6442 H       
  25 H25           -4.1991    -0.9737     1.6778 H       
  26 H26           -2.0963     0.3018     1.6722 H       
  27 H27           -5.3327    -2.6958     2.0191 H       
  28 H28           -6.0537    -1.5249     0.8888 H       
  29 H29           -7.4219    -3.3341    -0.1128 H       
  30 H30           -6.7010    -4.5051     1.0174 H       
  31 H31           -8.9067    -3.7209     1.8351 H       
  32 H32           -7.6007    -3.2111     2.9318 H       
  33 H33           -8.3216    -2.0402     1.8016 H       
@<TRIPOS>BOND
   1    1    2 ar
   2    1    6 ar
   3    1    7 1
   4    2    3 ar
   5    2    8 1
   6    3    4 ar
   7    3   19 1
   8    4    5 ar
   9    4   20 1
  10    5    6 ar
  11    5   21 1
  12    7   22 1
  13    7   23 1
  14    8    9 ar
  15    8   13 ar
  16    9   10 ar
  17    9   24 1
  18   10   11 ar
  19   10   18 1
  20   11   12 ar
  21   11   14 1
  22   12   13 ar
  23   12   25 1
  24   13   26 1
  25   14   15 1
  26   15   16 1
  27   15   27 1
  28   15   28 1
  29   16   17 1
  30   16   29 1
  31   16   30 1
  32   17   31 1
  33   17   32 1
  34   17   33 1

#	End of record

