#	Name: ASD03930154
#	Creating user name:	WinNT
#	Creation time:	15. 06. 2019 20:47

#	Modifying user name:	WinNT
#	Modification time:	15. 06. 2019 20:47

#	Program:	/corina/corina34_cracker 3.40 0067  02.08.2006

@<TRIPOS>MOLECULE
ASD03930154
  37   39    0    0    0
SMALL
NO_CHARGES


@<TRIPOS>ATOM
   1 C1            -0.0162     1.3436     0.0094 C.2     
   2 N2             0.0021    -0.0041     0.0020 N.am    
   3 O3             1.0277     1.9654     0.0028 O.2     
   4 O4            -1.1912     2.0008     0.0186 O.3     
   5 C5             1.2806    -0.7192    -0.0140 C.3     
   6 C6             1.1133    -2.1289     0.5918 C.3     
   7 C7             0.8194    -2.9919    -0.6536 C.3     
   8 C8             1.4695    -2.2577    -1.8067 C.ar    
   9 C9             1.8020    -2.6975    -3.0771 C.ar    
  10 C10            2.3979    -1.8351    -3.9776 C.ar    
  11 C11            2.6629    -0.5282    -3.6094 C.ar    
  12 C12            2.3313    -0.0886    -2.3431 C.ar    
  13 C13            1.7344    -0.9518    -1.4393 C.ar    
  14 Br14           2.8511    -2.4409    -5.7107 Br      
  15 C15           -1.1349     3.4517     0.0262 C.3     
  16 C16           -2.5351     4.0087     0.0359 C.ar    
  17 C17           -3.1717     4.2577     1.2374 C.ar    
  18 C18           -4.4561     4.7686     1.2463 C.ar    
  19 C19           -5.1038     5.0309     0.0536 C.ar    
  20 C20           -4.4670     4.7828    -1.1480 C.ar    
  21 C21           -3.1809     4.2760    -1.1568 C.ar    
  22 H22           -0.8313    -0.5005     0.0073 H       
  23 H23            2.0344    -0.1575     0.5376 H       
  24 H24            2.0328    -2.4527     1.0794 H       
  25 H25            0.2747    -2.1546     1.2877 H       
  26 H26            1.2596    -3.9826    -0.5397 H       
  27 H27           -0.2558    -3.0712    -0.8137 H       
  28 H28            1.5953    -3.7177    -3.3648 H       
  29 H29            3.1289     0.1474    -4.3114 H       
  30 H30            2.5389     0.9317    -2.0562 H       
  31 H31           -0.6031     3.7900     0.9155 H       
  32 H32           -0.6116     3.7997    -0.8644 H       
  33 H33           -2.6656     4.0527     2.1692 H       
  34 H34           -4.9537     4.9624     2.1850 H       
  35 H35           -6.1076     5.4294     0.0605 H       
  36 H36           -4.9732     4.9875    -2.0798 H       
  37 H37           -2.6820     4.0856    -2.0955 H       
@<TRIPOS>BOND
   1    1    2 am
   2    1    3 2
   3    1    4 1
   4    2    5 1
   5    2   22 1
   6    4   15 1
   7    5    6 1
   8    5   13 1
   9    5   23 1
  10    6    7 1
  11    6   24 1
  12    6   25 1
  13    7    8 1
  14    7   26 1
  15    7   27 1
  16    8    9 ar
  17    8   13 ar
  18    9   10 ar
  19    9   28 1
  20   10   11 ar
  21   10   14 1
  22   11   12 ar
  23   11   29 1
  24   12   13 ar
  25   12   30 1
  26   15   16 1
  27   15   31 1
  28   15   32 1
  29   16   17 ar
  30   16   21 ar
  31   17   18 ar
  32   17   33 1
  33   18   19 ar
  34   18   34 1
  35   19   20 ar
  36   19   35 1
  37   20   21 ar
  38   20   36 1
  39   21   37 1

#	End of record

