#	Name: ASD01911964
#	Creating user name:	WinNT
#	Creation time:	15. 06. 2019 19:58

#	Modifying user name:	WinNT
#	Modification time:	15. 06. 2019 19:58

#	Program:	/corina/corina34_cracker 3.40 0067  02.08.2006

@<TRIPOS>MOLECULE
ASD01911964
  40   42    0    0    0
SMALL
NO_CHARGES


@<TRIPOS>ATOM
   1 C1             0.7743     1.1505    -0.1319 C.ar    
   2 C2             0.5661    -0.2268    -0.1285 C.ar    
   3 C3             1.6746    -1.0614    -0.2500 C.ar    
   4 N4             2.8759    -0.5197    -0.3633 N.ar    
   5 C5             3.0310     0.7891    -0.3623 C.ar    
   6 N6             2.0080     1.6124    -0.2495 N.ar    
   7 N7            -0.7211    -0.7573    -0.0060 N.pl3   
   8 C8            -0.9090    -2.1423    -0.0048 C.ar    
   9 C9            -1.3095    -4.1864    -1.2008 C.ar    
  10 C10           -1.2839    -4.8891    -0.0110 C.ar    
  11 C11           -1.0755    -4.2202     1.1884 C.ar    
  12 C12           -0.8881    -2.8450     1.1914 C.ar    
  13 N13           -1.0497    -4.9327     2.3920 N.am    
  14 C14           -1.5525    -4.3796     3.5135 C.2     
  15 C15           -1.6200    -5.1697     4.7612 C.ar    
  16 O16           -1.9506    -3.2311     3.4990 O.2     
  17 C17           -1.1631    -6.4894     4.7795 C.ar    
  18 C18           -1.1229    -2.8171    -1.2021 C.ar    
  19 Cl19          -1.1559    -1.9385    -2.6990 Cl      
  20 C20           -1.8735     0.1383     0.1211 C.3     
  21 C21           -1.2248    -7.2289     5.9442 C.ar    
  22 C22           -1.7379    -6.6702     7.0976 C.ar    
  23 C23           -2.1990    -5.3510     7.0935 C.ar    
  24 C24           -2.1342    -4.5974     5.9230 C.ar    
  25 C25           -2.7313    -4.7730     8.2906 C.1     
  26 N26           -3.1536    -4.3144     9.2403 N.1     
  27 H27           -2.2620     0.3735    -0.8699 H       
  28 H28           -2.6503    -0.3502     0.7093 H       
  29 H29           -1.5657     1.0582     0.6183 H       
  30 H30           -0.0597     1.8311    -0.0444 H       
  31 H31            1.5550    -2.1347    -0.2513 H       
  32 H32            4.0258     1.1990    -0.4562 H       
  33 H33           -1.4717    -4.7090    -2.1320 H       
  34 H34           -1.4305    -5.9591    -0.0133 H       
  35 H35           -0.7259    -2.3230     2.1228 H       
  36 H36           -0.6700    -5.8249     2.4194 H       
  37 H37           -0.7608    -6.9328     3.8806 H       
  38 H38           -0.8704    -8.2490     5.9526 H       
  39 H39           -1.7833    -7.2541     8.0051 H       
  40 H40           -2.4888    -3.5774     5.9142 H       
@<TRIPOS>BOND
   1    1    2 ar
   2    1    6 ar
   3    1   30 1
   4    2    3 ar
   5    2    7 1
   6    3    4 ar
   7    3   31 1
   8    4    5 ar
   9    5    6 ar
  10    5   32 1
  11    7    8 1
  12    7   20 1
  13    8   18 ar
  14    8   12 ar
  15    9   10 ar
  16    9   18 ar
  17    9   33 1
  18   10   11 ar
  19   10   34 1
  20   11   12 ar
  21   11   13 1
  22   12   35 1
  23   13   14 am
  24   13   36 1
  25   14   15 1
  26   14   16 2
  27   15   17 ar
  28   15   24 ar
  29   17   21 ar
  30   17   37 1
  31   18   19 1
  32   20   27 1
  33   20   28 1
  34   20   29 1
  35   21   22 ar
  36   21   38 1
  37   22   23 ar
  38   22   39 1
  39   23   24 ar
  40   23   25 1
  41   24   40 1
  42   25   26 3

#	End of record

