#	Name: ASD01140363
#	Creating user name:	WinNT
#	Creation time:	15. 06. 2019 19:00

#	Modifying user name:	WinNT
#	Modification time:	15. 06. 2019 19:00

#	Program:	/corina/corina34_cracker 3.40 0067  02.08.2006

@<TRIPOS>MOLECULE
ASD01140363
  26   29    0    0    0
SMALL
NO_CHARGES


@<TRIPOS>ATOM
   1 N1            -0.0165     1.3641     0.0095 N.pl3   
   2 C2             0.0021    -0.0041     0.0020 C.2     
   3 C3             1.2440    -0.8627    -0.0466 C.3     
   4 N4             1.9825    -0.4788    -1.2556 N.pl3   
   5 C5             2.4122     0.7684    -1.5430 C.2     
   6 C6             2.2379     1.9848    -0.7241 C.ar    
   7 C7             1.0750     2.2367     0.0038 C.ar    
   8 C8             3.2887     2.9095    -0.6865 C.ar    
   9 C9             3.1778     4.0580     0.0660 C.ar    
  10 C10            2.0248     4.3038     0.7912 C.ar    
  11 C11            0.9800     3.4016     0.7610 C.ar    
  12 N12            2.3734    -1.3038    -2.3140 N.2     
  13 C13            3.0044    -0.5402    -3.1708 C.2     
  14 N14            3.0296     0.7075    -2.7098 N.2     
  15 C15           -1.3262     1.7349     0.0355 C.2     
  16 N16           -2.0646     0.6584     0.0556 N.2     
  17 C17           -1.2722    -0.4259     0.0358 C.2     
  18 Cl18          -1.8015    -2.0792     0.0507 Cl      
  19 H19            1.8564    -0.6816     0.8367 H       
  20 H20            0.9666    -1.9155    -0.0987 H       
  21 H21            4.1904     2.7216    -1.2505 H       
  22 H22            3.9918     4.7674     0.0905 H       
  23 H23            1.9417     5.2043     1.3816 H       
  24 H24            0.0831     3.6001     1.3289 H       
  25 H25            3.4365    -0.8712    -4.1036 H       
  26 H26           -1.6932     2.7506     0.0395 H       
@<TRIPOS>BOND
   1    1    2 1
   2    1    7 1
   3    1   15 1
   4    2    3 1
   5    2   17 2
   6    3    4 1
   7    3   19 1
   8    3   20 1
   9    4    5 1
  10    4   12 1
  11    5    6 1
  12    5   14 2
  13    6    7 ar
  14    6    8 ar
  15    7   11 ar
  16    8    9 ar
  17    8   21 1
  18    9   10 ar
  19    9   22 1
  20   10   11 ar
  21   10   23 1
  22   11   24 1
  23   12   13 2
  24   13   14 1
  25   13   25 1
  26   15   16 2
  27   15   26 1
  28   16   17 1
  29   17   18 1

#	End of record

