#	Name: ASD01918086
#	Creating user name:	WinNT
#	Creation time:	15. 06. 2019 20:10

#	Modifying user name:	WinNT
#	Modification time:	15. 06. 2019 20:10

#	Program:	/corina/corina34_cracker 3.40 0067  02.08.2006

@<TRIPOS>MOLECULE
ASD01918086
  45   48    0    0    0
SMALL
NO_CHARGES


@<TRIPOS>ATOM
   1 N1             4.8252    -0.4045    -2.1396 N.ar    
   2 C2             5.2914     0.2915    -3.1573 C.ar    
   3 C3             5.1764     1.6743    -3.1850 C.ar    
   4 C4             4.5602     2.3232    -2.1214 C.ar    
   5 C5             4.0816     1.5534    -1.0668 C.ar    
   6 C6             4.2350     0.1749    -1.1131 C.ar    
   7 O7             3.4724     2.1431    -0.0049 O.3     
   8 C8             3.4499     3.5021     0.0446 C.2     
   9 N9             2.1944     5.5119    -0.0206 N.pl3   
  10 C10            2.2656     4.1562    -0.0649 C.2     
  11 C11            4.6480     4.2065     0.2136 C.2     
  12 C12            4.6168     5.5958     0.2637 C.2     
  13 C13            3.3227     6.2657     0.1366 C.2     
  14 C14            5.8551     6.3728     0.4407 C.2     
  15 N15            5.8052     7.7189     0.4869 N.am    
  16 O16            6.9229     5.7999     0.5452 O.2     
  17 N17            1.1294     6.4204    -0.1059 N.2     
  18 C18            1.6413     7.6245    -0.0089 C.2     
  19 N19            2.9567     7.5377     0.1430 N.2     
  20 O20            5.6601     2.3846    -4.2379 O.3     
  21 C21            6.2798     1.6432    -5.2907 C.3     
  22 C22            6.9593     8.4496     0.7596 C.ar    
  23 N23            8.1220     7.8238     0.8649 N.ar    
  24 C24            6.8801     9.8280     0.9126 C.ar    
  25 C25            8.0337    10.5460     1.1832 C.ar    
  26 C26            9.2316     9.8584     1.2919 C.ar    
  27 C27            9.2410     8.4805     1.1225 C.ar    
  28 O28           10.4105     7.8001     1.2226 O.3     
  29 C29           10.3551     6.3841     1.0387 C.3     
  30 H30            5.7691    -0.2206    -3.9795 H       
  31 H31            4.4561     3.3981    -2.1141 H       
  32 H32            3.8659    -0.4306    -0.2985 H       
  33 H33            1.3578     3.5848    -0.1906 H       
  34 H34            5.5850     3.6773     0.3043 H       
  35 H35            4.9656     8.1787     0.3303 H       
  36 H36            1.0774     8.5451    -0.0396 H       
  37 H37            7.1317     1.0912    -4.8937 H       
  38 H38            5.5596     0.9439    -5.7154 H       
  39 H39            6.6209     2.3292    -6.0662 H       
  40 H40            5.9304    10.3341     0.8214 H       
  41 H41            7.9999    11.6184     1.3064 H       
  42 H42           10.1486    10.3889     1.5019 H       
  43 H43            9.6962     5.9459     1.7884 H       
  44 H44            9.9712     6.1618     0.0431 H       
  45 H45           11.3555     5.9645     1.1444 H       
@<TRIPOS>BOND
   1    1    2 ar
   2    1    6 ar
   3    2    3 ar
   4    2   30 1
   5    3    4 ar
   6    3   20 1
   7    4    5 ar
   8    4   31 1
   9    5    6 ar
  10    5    7 1
  11    6   32 1
  12    7    8 1
  13    8   11 1
  14    8   10 2
  15    9   10 1
  16    9   17 1
  17    9   13 1
  18   10   33 1
  19   11   12 2
  20   11   34 1
  21   12   13 1
  22   12   14 1
  23   13   19 2
  24   14   15 am
  25   14   16 2
  26   15   22 1
  27   15   35 1
  28   17   18 2
  29   18   19 1
  30   18   36 1
  31   20   21 1
  32   21   37 1
  33   21   38 1
  34   21   39 1
  35   22   24 ar
  36   22   23 ar
  37   23   27 ar
  38   24   25 ar
  39   24   40 1
  40   25   26 ar
  41   25   41 1
  42   26   27 ar
  43   26   42 1
  44   27   28 1
  45   28   29 1
  46   29   43 1
  47   29   44 1
  48   29   45 1

#	End of record

