#	Name: ASD03930211
#	Creating user name:	WinNT
#	Creation time:	15. 06. 2019 20:47

#	Modifying user name:	WinNT
#	Modification time:	15. 06. 2019 20:47

#	Program:	/corina/corina34_cracker 3.40 0067  02.08.2006

@<TRIPOS>MOLECULE
ASD03930211
  26   27    0    0    0
SMALL
NO_CHARGES


@<TRIPOS>ATOM
   1 C1             0.0046     1.5258     0.0237 C.3     
   2 C2             0.0021    -0.0041     0.0020 C.3     
   3 N3             0.6897    -0.4778    -1.2066 N.3     
   4 C4             2.0012     0.1421    -1.3379 C.3     
   5 N5             2.5809    -0.2123    -2.6510 N.am    
   6 S6             2.8769    -1.8436    -2.8624 S.o2    
   7 O7             2.7212    -2.1160    -4.2483 O.2     
   8 O8             4.0545    -2.1489    -2.1280 O.2     
   9 C9             1.5284    -2.6293    -2.0281 C.ar    
  10 C10            1.3894    -3.9992    -2.1062 C.ar    
  11 C11            0.3506    -4.6312    -1.4454 C.ar    
  12 Br12           0.1558    -6.5089    -1.5545 Br      
  13 C13           -0.5441    -3.8803    -0.7040 C.ar    
  14 C14           -0.4106    -2.5112    -0.6310 C.ar    
  15 C15            0.6291    -1.8610    -1.3034 C.ar    
  16 H16            1.0329     1.8874     0.0253 H       
  17 H17           -0.5116     1.9025    -0.8593 H       
  18 H18           -0.5056     1.8773     0.9205 H       
  19 H19            0.5183    -0.3808     0.8850 H       
  20 H20           -1.0262    -0.3657     0.0004 H       
  21 H21            1.9006     1.2250    -1.2650 H       
  22 H22            2.6546    -0.2173    -0.5429 H       
  23 H23            2.7739     0.4484    -3.3345 H       
  24 H24            2.0927    -4.5800    -2.6846 H       
  25 H25           -1.3516    -4.3700    -0.1800 H       
  26 H26           -1.1149    -1.9349    -0.0495 H       
@<TRIPOS>BOND
   1    1    2 1
   2    1   16 1
   3    1   17 1
   4    1   18 1
   5    2    3 1
   6    2   19 1
   7    2   20 1
   8    3   15 1
   9    3    4 1
  10    4    5 1
  11    4   21 1
  12    4   22 1
  13    5    6 am
  14    5   23 1
  15    6    7 2
  16    6    8 2
  17    6    9 1
  18    9   15 ar
  19    9   10 ar
  20   10   11 ar
  21   10   24 1
  22   11   12 1
  23   11   13 ar
  24   13   14 ar
  25   13   25 1
  26   14   15 ar
  27   14   26 1

#	End of record

