#	Name: ASD01884471
#	Creating user name:	WinNT
#	Creation time:	15. 06. 2019 19:48

#	Modifying user name:	WinNT
#	Modification time:	15. 06. 2019 19:48

#	Program:	/corina/corina34_cracker 3.40 0067  02.08.2006

@<TRIPOS>MOLECULE
ASD01884471
  45   47    0    0    0
SMALL
NO_CHARGES


@<TRIPOS>ATOM
   1 C1            -0.9664     1.1292     0.1955 C.2     
   2 C2            -0.7611    -0.2149     0.2608 C.2     
   3 C3             0.4264    -0.7552    -0.2817 C.2     
   4 C4             1.3495     0.0831    -0.8635 C.2     
   5 N5             1.1274     1.4132    -0.9184 N.am    
   6 C6             0.0036     1.9492    -0.4082 C.2     
   7 C7             0.6762    -2.2148    -0.2240 C.ar    
   8 C8             2.1247     2.2863    -1.5423 C.3     
   9 O9            -0.1750     3.1548    -0.4696 O.2     
  10 C10            1.8210     2.4260    -3.0118 C.ar    
  11 C11            0.9939     3.4421    -3.4528 C.ar    
  12 C12            0.7150     3.5708    -4.8004 C.ar    
  13 C13            1.2638     2.6824    -5.7080 C.ar    
  14 C14            2.0915     1.6657    -5.2660 C.ar    
  15 C15            2.3742     1.5415    -3.9188 C.ar    
  16 C16            0.8454    -2.8451     1.0096 C.ar    
  17 C17            0.7364    -2.9591    -1.4031 C.ar    
  18 C18            0.9674    -4.3146    -1.3506 C.ar    
  19 C19            1.1423    -4.9459    -0.1160 C.ar    
  20 C20            1.0774    -4.2004     1.0643 C.ar    
  21 Cl21           0.9135     2.8430    -7.4007 Cl      
  22 C22            1.3901    -6.4002    -0.0585 C.2     
  23 N23            1.0759    -7.0939     1.0534 N.am    
  24 O24            1.8777    -6.9721    -1.0143 O.2     
  25 C25            1.0694    -8.5587     1.0257 C.3     
  26 C26            0.7408    -6.3833     2.2899 C.3     
  27 H27           -1.8694     1.5620     0.6001 H       
  28 H28           -1.4954    -0.8593     0.7212 H       
  29 H29            2.2586    -0.3263    -1.2789 H       
  30 H30            2.0942     3.2682    -1.0700 H       
  31 H31            3.1168     1.8530    -1.4159 H       
  32 H32            0.5653     4.1353    -2.7442 H       
  33 H33            0.0685     4.3644    -5.1448 H       
  34 H34            2.5202     0.9720    -5.9740 H       
  35 H35            3.0203     0.7479    -3.5736 H       
  36 H36            0.7945    -2.2689     1.9217 H       
  37 H37            0.6013    -2.4711    -2.3570 H       
  38 H38            1.0133    -4.8905    -2.2631 H       
  39 H39            1.2124    -4.6873     2.0189 H       
  40 H40            2.0582    -8.9315     1.2927 H       
  41 H41            0.3352    -8.9323     1.7394 H       
  42 H42            0.8099    -8.9019     0.0242 H       
  43 H43           -0.0438    -5.6539     2.0886 H       
  44 H44            0.3908    -7.0969     3.0357 H       
  45 H45            1.6261    -5.8702     2.6654 H       
@<TRIPOS>BOND
   1    1    2 2
   2    1    6 1
   3    1   27 1
   4    2    3 1
   5    2   28 1
   6    3    4 2
   7    3    7 1
   8    4    5 1
   9    4   29 1
  10    5    6 am
  11    5    8 1
  12    6    9 2
  13    7   16 ar
  14    7   17 ar
  15    8   10 1
  16    8   30 1
  17    8   31 1
  18   10   11 ar
  19   10   15 ar
  20   11   12 ar
  21   11   32 1
  22   12   13 ar
  23   12   33 1
  24   13   14 ar
  25   13   21 1
  26   14   15 ar
  27   14   34 1
  28   15   35 1
  29   16   20 ar
  30   16   36 1
  31   17   18 ar
  32   17   37 1
  33   18   19 ar
  34   18   38 1
  35   19   20 ar
  36   19   22 1
  37   20   39 1
  38   22   23 am
  39   22   24 2
  40   23   25 1
  41   23   26 1
  42   25   40 1
  43   25   41 1
  44   25   42 1
  45   26   43 1
  46   26   44 1
  47   26   45 1

#	End of record

