#	Name: ASD00120008
#	Creating user name:	WinNT
#	Creation time:	15. 06. 2019 18:31

#	Modifying user name:	WinNT
#	Modification time:	15. 06. 2019 18:31

#	Program:	/corina/corina34_cracker 3.40 0067  02.08.2006

@<TRIPOS>MOLECULE
ASD00120008
  52   52    0    0    0
SMALL
NO_CHARGES


@<TRIPOS>ATOM
   1 C1            -0.0167     1.3782     0.0096 C.ar    
   2 C2             0.0021    -0.0041     0.0020 C.ar    
   3 C3             1.2094    -0.6791    -0.0132 C.ar    
   4 C4             2.3977     0.0299    -0.0208 C.ar    
   5 C5             2.3777     1.4116    -0.0132 C.ar    
   6 C6             1.1706     2.0857     0.0021 C.ar    
   7 Cl7            1.2338    -2.4149    -0.0222 Cl      
   8 C8            -1.2925    -0.7754     0.0108 C.3     
   9 N9            -1.5431    -1.3268    -1.3276 N.3     
  10 C10           -2.7998    -2.0869    -1.3570 C.3     
  11 C11           -3.3521    -2.1117    -2.7877 C.3     
  12 C12           -2.3258    -2.8000    -3.6964 C.3     
  13 C13           -2.0792    -4.2194    -3.1777 C.3     
  14 N14           -2.9038    -4.4517    -1.9838 N.3     
  15 C15           -2.5398    -3.5261    -0.9026 C.3     
  16 C16           -4.3342    -4.3517    -2.3051 C.3     
  17 C17           -4.6457    -2.9360    -2.7985 C.3     
  18 H18           -3.5385    -1.0955    -3.1351 H       
  19 H19           -0.9593     1.9053     0.0170 H       
  20 H20            3.3407    -0.4966    -0.0323 H       
  21 H21            3.3051     1.9651    -0.0191 H       
  22 H22            1.1555     3.1656     0.0080 H       
  23 H23           -1.2255    -1.5895     0.7325 H       
  24 H24           -2.1100    -0.1101     0.2885 H       
  25 H25           -1.5454    -0.5973    -2.0246 H       
  26 H26           -3.5260    -1.6178    -0.6931 H       
  27 H27           -2.7120    -2.8452    -4.7147 H       
  28 H28           -1.3915    -2.2387    -3.6828 H       
  29 H29           -2.3464    -4.9405    -3.9502 H       
  30 H30           -1.0263    -4.3348    -2.9205 H       
  31 H31           -1.4836    -3.6461    -0.6615 H       
  32 H32           -3.1415    -3.7432    -0.0201 H       
  33 H33           -4.5830    -5.0716    -3.0848 H       
  34 H34           -4.9231    -4.5636    -1.4126 H       
  35 H35           -5.3795    -2.4726    -2.1391 H       
  36 H36           -5.0412    -2.9816    -3.8132 H       
  37 C37            9.5121    10.1539     6.8793 C.2     
  38 C38            9.5325     8.6470     6.8710 C.3     
  39 O39           10.5502    10.7722     6.8727 O.2     
  40 O40            8.3407    10.8091     6.8884 O.3     
  41 F41           10.8577     8.1987     6.8559 F       
  42 F42            8.8904     8.1656     8.0169 F       
  43 F43            8.8686     8.1779     5.7325 F       
  44 H44            8.3782    11.7754     6.8935 H       
  45 C45           17.0291    18.7636    14.1637 C.2     
  46 C46           17.0496    17.2568    14.1554 C.3     
  47 O47           18.0672    19.3819    14.1571 O.2     
  48 O48           15.8577    19.4189    14.1728 O.3     
  49 F49           18.3747    16.8085    14.1404 F       
  50 F50           16.4074    16.7754    15.3013 F       
  51 F51           16.3856    16.7877    13.0169 F       
  52 H52           15.8952    20.3852    14.1779 H       
@<TRIPOS>BOND
   1    1    2 ar
   2    1    6 ar
   3    1   19 1
   4    2    3 ar
   5    2    8 1
   6    3    4 ar
   7    3    7 1
   8    4    5 ar
   9    4   20 1
  10    5    6 ar
  11    5   21 1
  12    6   22 1
  13    8    9 1
  14    8   23 1
  15    8   24 1
  16    9   10 1
  17    9   25 1
  18   10   11 1
  19   10   15 1
  20   10   26 1
  21   11   12 1
  22   11   18 1
  23   11   17 1
  24   12   13 1
  25   12   27 1
  26   12   28 1
  27   13   14 1
  28   13   29 1
  29   13   30 1
  30   14   15 1
  31   14   16 1
  32   15   31 1
  33   15   32 1
  34   16   17 1
  35   16   33 1
  36   16   34 1
  37   17   35 1
  38   17   36 1
  39   37   38 1
  40   37   39 2
  41   37   40 1
  42   38   41 1
  43   38   42 1
  44   38   43 1
  45   40   44 1
  46   45   46 1
  47   45   47 2
  48   45   48 1
  49   46   49 1
  50   46   50 1
  51   46   51 1
  52   48   52 1

#	End of record

