#	Name: ASD03091607
#	Creating user name:	WinNT
#	Creation time:	15. 06. 2019 20:31

#	Modifying user name:	WinNT
#	Modification time:	15. 06. 2019 20:31

#	Program:	/corina/corina34_cracker 3.40 0067  02.08.2006

@<TRIPOS>MOLECULE
ASD03091607
  40   42    0    0    0
SMALL
NO_CHARGES


@<TRIPOS>ATOM
   1 Cl1            0.0000     0.0000     0.0000 Cl      
   2 H2             0.0000     1.3700     0.0000 H       
   3 C3            13.6936    12.0166     6.5871 C.ar    
   4 C4            13.7127    10.6102     6.5793 C.ar    
   5 C5            14.9378     9.9487     6.5645 C.ar    
   6 C6            16.1102    10.6761     6.5577 C.ar    
   7 C7            16.0835    12.0642     6.5658 C.ar    
   8 C8            14.8930    12.7340     6.5795 C.ar    
   9 O9            12.4340    10.1851     6.5892 O.3     
  10 C10           11.5805    11.2302     6.6030 C.2     
  11 C11           12.2808    12.3938     6.6084 C.2     
  12 C12           10.1145    11.1250     6.6164 C.2     
  13 O13            9.4325    12.1323     6.6279 O.2     
  14 N14            9.5259     9.9126     6.6160 N.am    
  15 N15            6.8347     8.6545     8.4051 N.3     
  16 C16            7.5575     9.8893     8.0721 C.3     
  17 C17            8.0647     9.8078     6.6294 C.3     
  18 C18            7.6405     8.4606     6.0311 C.3     
  19 C19            6.1107     8.3616     6.0844 C.3     
  20 C20            5.6578     8.4826     7.5422 C.3     
  21 C21            7.7214     7.4856     8.3240 C.3     
  22 C22            8.2338     7.3358     6.8888 C.3     
  23 F23           14.9784     8.5983     6.5574 F       
  24 H24           17.0589    10.1601     6.5462 H       
  25 H25           17.0105    12.6184     6.5610 H       
  26 H26           14.8787    13.8139     6.5851 H       
  27 H27           11.8762    13.3951     6.6198 H       
  28 H28           10.0697     9.1094     6.6069 H       
  29 H29            6.8864    10.7422     8.1740 H       
  30 H30            8.4036    10.0092     8.7488 H       
  31 H31            7.6329    10.6196     6.0440 H       
  32 H32            7.9854     8.3832     5.0000 H       
  33 H33            5.6718     9.1684     5.4975 H       
  34 H34            5.7927     7.3999     5.6819 H       
  35 H35            5.1226     7.5787     7.8330 H       
  36 H36            5.0000     9.3452     7.6482 H       
  37 H37            8.5660     7.6222     8.9994 H       
  38 H38            7.1693     6.5898     8.6084 H       
  39 H39            7.9244     6.3700     6.4895 H       
  40 H40            9.3216     7.4051     6.8803 H       
@<TRIPOS>BOND
   1    1    2 1
   2    3    4 ar
   3    3    8 ar
   4    3   11 1
   5    4    5 ar
   6    4    9 1
   7    5    6 ar
   8    5   23 1
   9    6    7 ar
  10    6   24 1
  11    7    8 ar
  12    7   25 1
  13    8   26 1
  14    9   10 1
  15   10   11 2
  16   10   12 1
  17   11   27 1
  18   12   13 2
  19   12   14 am
  20   14   17 1
  21   14   28 1
  22   15   16 1
  23   15   20 1
  24   15   21 1
  25   16   17 1
  26   16   29 1
  27   16   30 1
  28   17   18 1
  29   17   31 1
  30   18   19 1
  31   18   22 1
  32   18   32 1
  33   19   20 1
  34   19   33 1
  35   19   34 1
  36   20   35 1
  37   20   36 1
  38   21   22 1
  39   21   37 1
  40   21   38 1
  41   22   39 1
  42   22   40 1

#	End of record

