#	Name: ASD03240282
#	Creating user name:	WinNT
#	Creation time:	15. 06. 2019 20:34

#	Modifying user name:	WinNT
#	Modification time:	15. 06. 2019 20:34

#	Program:	/corina/corina34_cracker 3.40 0067  02.08.2006

@<TRIPOS>MOLECULE
ASD03240282
  92   98    0    0    0
SMALL
NO_CHARGES


@<TRIPOS>ATOM
   1 C1             0.0781     1.5243     0.6318 C.2     
   2 N2             0.1828     0.2878     1.2238 N.pl3   
   3 C3            -2.6672     4.0270     0.1611 C.3     
   4 C4            -1.2354     3.5090     0.0105 C.3     
   5 N5            -1.1239     2.1915     0.6413 N.pl3   
   6 N6             1.1199     2.0663     0.0663 N.2     
   7 N7            -2.7787     5.3445    -0.4697 N.pl3   
   8 C8            -3.9922     6.0181    -0.4601 C.ar    
   9 C9            -4.0990     7.2805    -1.0645 C.ar    
  10 C10           -5.3154     7.9506    -1.0529 C.ar    
  11 C11           -6.4241     7.3647    -0.4403 C.ar    
  12 C12           -6.3080     6.1063     0.1594 C.ar    
  13 C13           -5.1036     5.4399     0.1432 C.ar    
  14 C14           -7.7182     8.0727    -0.4249 C.2     
  15 N15           -8.7889     7.5069     0.1667 N.am    
  16 O16           -7.8190     9.1669    -0.9460 O.2     
  17 C17           -9.9868     8.2241     0.2804 C.ar    
  18 C18          -11.2040     7.5625     0.1847 C.ar    
  19 C19           -9.9570     9.5959     0.4946 C.ar    
  20 C20          -11.1375    10.3028     0.6072 C.ar    
  21 C21          -12.3550     9.6421     0.5058 C.ar    
  22 C22          -12.3846     8.2694     0.2963 C.ar    
  23 N23          -13.5513    10.3582     0.6202 N.pl3   
  24 C24          -14.8354     9.6612     0.5132 C.3     
  25 C25          -13.5199    11.8052     0.8471 C.3     
  26 C26           -2.9175     7.8964    -1.7125 C.ar    
  27 C27           -3.0185     8.4036    -3.0088 C.ar    
  28 C28           -1.9218     8.9760    -3.6117 C.ar    
  29 C29           -0.7064     9.0496    -2.9251 C.ar    
  30 C30           -0.6066     8.5416    -1.6266 C.ar    
  31 C31           -1.7060     7.9741    -1.0240 C.ar    
  32 C32          -13.5117    12.5215    -0.4787 C.ar    
  33 C33          -15.2732     9.2021     1.8802 C.ar    
  34 C34          -14.6922    12.8648    -1.0624 C.ar    
  35 C35          -14.6882    13.5333    -2.2986 C.ar    
  36 C36          -13.4513    13.8397    -2.9187 C.ar    
  37 C37          -12.2526    13.4688    -2.2857 C.ar    
  38 C38          -12.2951    12.8276    -1.0860 C.ar    
  39 C39          -16.0380    10.0234     2.6500 C.ar    
  40 C40          -16.4484     9.5982     3.9252 C.ar    
  41 C41          -16.0579     8.3175     4.3895 C.ar    
  42 C42          -15.2673     7.4976     3.5661 C.ar    
  43 C43          -14.8935     7.9404     2.3348 C.ar    
  44 C44          -17.2381    10.4184     4.7491 C.ar    
  45 C45          -17.6163     9.9733     5.9783 C.ar    
  46 C46          -17.2319     8.7139     6.4350 C.ar    
  47 C47          -16.4682     7.8922     5.6645 C.ar    
  48 C48          -15.8868    13.9034    -2.9323 C.ar    
  49 C49          -15.8440    14.5494    -4.1294 C.ar    
  50 C50          -14.6276    14.8504    -4.7393 C.ar    
  51 C51          -13.4471    14.5083    -4.1549 C.ar    
  52 C52            0.4357     9.6445    -3.5516 C.1     
  53 N53            1.3417    10.1164    -4.0486 N.1     
  54 H54            1.0318    -0.1811     1.2206 H       
  55 H55           -0.5925    -0.1155     1.6447 H       
  56 H56           -3.3568     3.3340    -0.3208 H       
  57 H57           -2.9146     4.1088     1.2195 H       
  58 H58           -0.9880     3.4272    -1.0479 H       
  59 H59           -0.5458     4.2021     0.4923 H       
  60 H60           -1.8982     1.7899     1.0657 H       
  61 H61            1.0461     2.9387    -0.3514 H       
  62 H62           -2.0044     5.7462    -0.8941 H       
  63 H63           -5.4030     8.9222    -1.5161 H       
  64 H64           -7.1669     5.6545     0.6333 H       
  65 H65           -5.0196     4.4683     0.6074 H       
  66 H66           -8.7300     6.6030     0.5137 H       
  67 H67          -11.2270     6.4950     0.0225 H       
  68 H68           -9.0103    10.1097     0.5735 H       
  69 H69          -11.1143    11.3695     0.7745 H       
  70 H70          -13.3312     7.7555     0.2174 H       
  71 H71          -15.5832    10.3385     0.1007 H       
  72 H72          -14.7264     8.7974    -0.1425 H       
  73 H73          -14.4010    12.1031     1.4155 H       
  74 H74          -12.6214    12.0659     1.4065 H       
  75 H75           -3.9576     8.3466    -3.5391 H       
  76 H76           -2.0000     9.3678    -4.6151 H       
  77 H77            0.3319     8.5979    -1.0952 H       
  78 H78           -1.6293     7.5819    -0.0207 H       
  79 H79          -15.6272    12.6245    -0.5783 H       
  80 H80          -11.3026    13.6958    -2.7465 H       
  81 H81          -11.3725    12.5439    -0.6015 H       
  82 H82          -16.3277    10.9970     2.2831 H       
  83 H83          -14.9622     6.5192     3.9068 H       
  84 H84          -14.2863     7.3083     1.7038 H       
  85 H85          -17.5429    11.3970     4.4086 H       
  86 H86          -18.2232    10.6056     6.6094 H       
  87 H87          -17.5451     8.3850     7.4149 H       
  88 H88          -16.1782     6.9187     6.0315 H       
  89 H89          -16.8369    13.6761    -2.4718 H       
  90 H90          -16.7666    14.8327    -4.6141 H       
  91 H91          -14.6216    15.3632    -5.6898 H       
  92 H92          -12.5120    14.7483    -4.6390 H       
@<TRIPOS>BOND
   1    1    2 1
   2    1    6 2
   3    1    5 1
   4    2   54 1
   5    2   55 1
   6    3    4 1
   7    3    7 1
   8    3   56 1
   9    3   57 1
  10    4    5 1
  11    4   58 1
  12    4   59 1
  13    5   60 1
  14    6   61 1
  15    7    8 1
  16    7   62 1
  17    8    9 ar
  18    8   13 ar
  19    9   10 ar
  20    9   26 1
  21   10   11 ar
  22   10   63 1
  23   11   12 ar
  24   11   14 1
  25   12   13 ar
  26   12   64 1
  27   13   65 1
  28   14   15 am
  29   14   16 2
  30   15   17 1
  31   15   66 1
  32   17   18 ar
  33   17   19 ar
  34   18   22 ar
  35   18   67 1
  36   19   20 ar
  37   19   68 1
  38   20   21 ar
  39   20   69 1
  40   21   22 ar
  41   21   23 1
  42   22   70 1
  43   23   24 1
  44   23   25 1
  45   24   33 1
  46   24   71 1
  47   24   72 1
  48   25   32 1
  49   25   73 1
  50   25   74 1
  51   26   27 ar
  52   26   31 ar
  53   27   28 ar
  54   27   75 1
  55   28   29 ar
  56   28   76 1
  57   29   30 ar
  58   29   52 1
  59   30   31 ar
  60   30   77 1
  61   31   78 1
  62   32   34 ar
  63   32   38 ar
  64   33   39 ar
  65   33   43 ar
  66   34   35 ar
  67   34   79 1
  68   35   36 ar
  69   35   48 ar
  70   36   37 ar
  71   36   51 ar
  72   37   38 ar
  73   37   80 1
  74   38   81 1
  75   39   40 ar
  76   39   82 1
  77   40   41 ar
  78   40   44 ar
  79   41   42 ar
  80   41   47 ar
  81   42   43 ar
  82   42   83 1
  83   43   84 1
  84   44   45 ar
  85   44   85 1
  86   45   46 ar
  87   45   86 1
  88   46   47 ar
  89   46   87 1
  90   47   88 1
  91   48   49 ar
  92   48   89 1
  93   49   50 ar
  94   49   90 1
  95   50   51 ar
  96   50   91 1
  97   51   92 1
  98   52   53 3

#	End of record

