#	Name: ASD01814796
#	Creating user name:	WinNT
#	Creation time:	15. 06. 2019 19:33

#	Modifying user name:	WinNT
#	Modification time:	15. 06. 2019 19:33

#	Program:	/corina/corina34_cracker 3.40 0067  02.08.2006

@<TRIPOS>MOLECULE
ASD01814796
  44   46    0    0    0
SMALL
NO_CHARGES


@<TRIPOS>ATOM
   1 C1            -0.0169     1.3972     0.0097 C.2     
   2 C2             0.0021    -0.0041     0.0020 C.2     
   3 C3             1.1986    -0.6593    -0.0129 C.2     
   4 C4             2.3918     0.0821    -0.0204 C.2     
   5 N5             2.3437     1.4497    -0.0122 N.am    
   6 C6             1.1421     2.0937     0.0024 C.2     
   7 C7             3.6227    -0.5889    -0.0356 C.2     
   8 C8             4.7877     0.1218    -0.0425 C.2     
   9 C9             4.7345     1.5280    -0.0346 C.2     
  10 C10            3.4812     2.1736    -0.0189 C.2     
  11 O11            3.4258     3.3917    -0.0123 O.2     
  12 C12            5.9703     2.3140    -0.0413 C.2     
  13 O13            5.9124     3.6618    -0.0337 O.3     
  14 O14            7.0487     1.7516    -0.0537 O.2     
  15 C15            3.6593    -2.0954    -0.0439 C.3     
  16 N16            3.7787    -2.5747    -1.4274 N.3     
  17 C17            4.0549    -4.0171    -1.4629 C.3     
  18 C18            3.9924    -4.5102    -2.9124 C.3     
  19 N19            4.8965    -3.6838    -3.7265 N.am    
  20 C20            4.7708    -2.2210    -3.6383 C.3     
  21 C21            4.8026    -1.8179    -2.1602 C.3     
  22 H22            5.0482    -4.2073    -1.0564 H       
  23 H23            4.3080    -5.5525    -2.9584 H       
  24 H24            2.9733    -4.4165    -3.2874 H       
  25 S25            6.0264    -4.3816    -4.7157 S.o2    
  26 O26            7.0479    -3.4003    -4.8279 O.2     
  27 O27            6.2855    -5.6436    -4.1162 O.2     
  28 C28            5.1707    -4.5938    -6.3011 C.3     
  29 H29           -0.9605     1.9226     0.0170 H       
  30 H30           -0.9233    -0.5609     0.0082 H       
  31 H31            1.2282    -1.7389    -0.0187 H       
  32 H32            1.1156     3.1733     0.0087 H       
  33 H33            5.7393    -0.3889    -0.0536 H       
  34 H34            6.7544     4.1373    -0.0385 H       
  35 H35            4.5153    -2.4412     0.5356 H       
  36 H36            2.7412    -2.4836     0.3971 H       
  37 H37            3.3104    -4.5447    -0.8667 H       
  38 H38            5.6010    -1.7498    -4.1643 H       
  39 H39            3.8264    -1.9072    -4.0831 H       
  40 H40            4.6004    -0.7507    -2.0698 H       
  41 H41            5.7855    -2.0388    -1.7440 H       
  42 H42            4.8491    -3.6211    -6.6734 H       
  43 H43            5.8483    -5.0525    -7.0212 H       
  44 H44            4.3005    -5.2352    -6.1613 H       
@<TRIPOS>BOND
   1    1    2 1
   2    1    6 2
   3    1   29 1
   4    2    3 2
   5    2   30 1
   6    3    4 1
   7    3   31 1
   8    4    5 1
   9    4    7 2
  10    5    6 1
  11    5   10 am
  12    6   32 1
  13    7   15 1
  14    7    8 1
  15    8    9 2
  16    8   33 1
  17    9   10 1
  18    9   12 1
  19   10   11 2
  20   12   13 1
  21   12   14 2
  22   13   34 1
  23   15   16 1
  24   15   35 1
  25   15   36 1
  26   16   17 1
  27   16   21 1
  28   17   18 1
  29   17   22 1
  30   17   37 1
  31   18   19 1
  32   18   23 1
  33   18   24 1
  34   19   20 1
  35   19   25 am
  36   20   21 1
  37   20   38 1
  38   20   39 1
  39   21   40 1
  40   21   41 1
  41   25   26 2
  42   25   27 2
  43   25   28 1
  44   28   42 1
  45   28   43 1
  46   28   44 1

#	End of record

