#	Name: ASD01915885
#	Creating user name:	WinNT
#	Creation time:	15. 06. 2019 20:06

#	Modifying user name:	WinNT
#	Modification time:	15. 06. 2019 20:06

#	Program:	/corina/corina34_cracker 3.40 0067  02.08.2006

@<TRIPOS>MOLECULE
ASD01915885
  44   46    0    0    0
SMALL
NO_CHARGES


@<TRIPOS>ATOM
   1 C1            -0.0144     1.2116     0.0087 C.2     
   2 O2            -0.0448     0.1738    -0.6239 O.2     
   3 C3             1.2091     2.0377     0.0133 C.ar    
   4 C4             2.4629     1.4286     0.1210 C.ar    
   5 C5             3.5953     2.1921     0.1249 C.ar    
   6 C6             3.5003     3.5844     0.0211 C.ar    
   7 C7             2.2451     4.1933    -0.0866 C.ar    
   8 C8             1.1138     3.4282    -0.0957 C.ar    
   9 C9             4.7203     4.4079     0.0257 C.2     
  10 C10            4.6287     5.7450    -0.0739 C.2     
  11 C11            5.8499     6.5694    -0.0693 C.ar    
  12 C12            5.7587     7.9603    -0.1727 C.ar    
  13 C13            6.9061     8.7254    -0.1672 C.ar    
  14 C14            8.1455     8.1193    -0.0601 C.ar    
  15 C15            8.2438     6.7427     0.0423 C.ar    
  16 C16            7.1049     5.9649     0.0444 C.ar    
  17 N17           -1.0996     1.6108     0.7012 N.am    
  18 C18           -1.0389     2.7927     1.5720 C.3     
  19 C19           -1.5228     2.3994     2.9713 C.3     
  20 C20           -2.9121     1.7662     2.8670 C.3     
  21 C21           -2.8349     0.5010     2.0094 C.3     
  22 C22           -2.3675     0.8760     0.5948 C.3     
  23 O23           -3.3803     1.4275     4.1740 O.3     
  24 H24            2.5361     0.3541     0.2014 H       
  25 H25            4.5638     1.7215     0.2084 H       
  26 H26            2.1711     5.2678    -0.1663 H       
  27 H27            0.1452     3.8978    -0.1829 H       
  28 H28            5.6889     3.9377     0.1092 H       
  29 H29            3.6601     6.2152    -0.1574 H       
  30 H30            4.7921     8.4346    -0.2571 H       
  31 H31            6.8372     9.8002    -0.2471 H       
  32 H32            9.0406     8.7235    -0.0567 H       
  33 H33            9.2145     6.2766     0.1249 H       
  34 H34            7.1828     4.8911     0.1292 H       
  35 H35           -0.0116     3.1527     1.6283 H       
  36 H36           -1.6813     3.5761     1.1700 H       
  37 H37           -0.8280     1.6823     3.4083 H       
  38 H38           -1.5740     3.2874     3.6014 H       
  39 H39           -3.6007     2.4751     2.4072 H       
  40 H40           -2.1277    -0.1983     2.4555 H       
  41 H41           -3.8200     0.0378     1.9549 H       
  42 H42           -3.1160     1.5064     0.1148 H       
  43 H43           -2.2170    -0.0290     0.0063 H       
  44 H44           -4.2574     1.0206     4.1844 H       
@<TRIPOS>BOND
   1    1    2 2
   2    1    3 1
   3    1   17 am
   4    3    4 ar
   5    3    8 ar
   6    4    5 ar
   7    4   24 1
   8    5    6 ar
   9    5   25 1
  10    6    7 ar
  11    6    9 1
  12    7    8 ar
  13    7   26 1
  14    8   27 1
  15    9   10 2
  16    9   28 1
  17   10   11 1
  18   10   29 1
  19   11   12 ar
  20   11   16 ar
  21   12   13 ar
  22   12   30 1
  23   13   14 ar
  24   13   31 1
  25   14   15 ar
  26   14   32 1
  27   15   16 ar
  28   15   33 1
  29   16   34 1
  30   17   18 1
  31   17   22 1
  32   18   19 1
  33   18   35 1
  34   18   36 1
  35   19   20 1
  36   19   37 1
  37   19   38 1
  38   20   21 1
  39   20   23 1
  40   20   39 1
  41   21   22 1
  42   21   40 1
  43   21   41 1
  44   22   42 1
  45   22   43 1
  46   23   44 1

#	End of record

