#	Name: ASD04590035
#	Creating user name:	WinNT
#	Creation time:	15. 06. 2019 20:50

#	Modifying user name:	WinNT
#	Modification time:	15. 06. 2019 20:50

#	Program:	/corina/corina34_cracker 3.40 0067  02.08.2006

@<TRIPOS>MOLECULE
ASD04590035
  47   49    0    0    0
SMALL
NO_CHARGES


@<TRIPOS>ATOM
   1 N1             0.0175    -0.0896    -0.5385 N.am    
   2 C2            -0.0839    -1.2461     0.3621 C.3     
   3 C3             0.0145    -0.7539     1.8095 C.3     
   4 C4             1.2962     0.0648     1.9797 C.3     
   5 C5             1.2506     1.2847     1.0568 C.3     
   6 C6             1.1663     0.8157    -0.3991 C.3     
   7 C7             1.4136     0.5220     3.4109 C.2     
   8 O8             0.5566     0.2227     4.2154 O.2     
   9 N9             2.4707     1.2636     3.7968 N.am    
  10 N10            2.2169     2.0437     7.2551 N.pl3   
  11 N11            3.3223     2.6349     6.9753 N.2     
  12 C12            3.6186     2.4698     5.7005 C.2     
  13 C13            2.5800     1.6895     5.1296 C.2     
  14 C14            1.7134     1.4413     6.1474 C.2     
  15 C15            4.8049     2.9971     5.0007 C.2     
  16 N16            5.7153     3.7278     5.6743 N.am    
  17 O17            4.9617     2.7726     3.8158 O.2     
  18 C18            6.8932     4.1369     5.0387 C.ar    
  19 C19            6.8620     4.5429     3.7110 C.ar    
  20 C20            8.0255     4.9463     3.0857 C.ar    
  21 C21            9.2226     4.9460     3.7817 C.ar    
  22 C22            9.2561     4.5411     5.1055 C.ar    
  23 C23            8.0939     4.1428     5.7364 C.ar    
  24 F24           10.3597     5.3409     3.1681 F       
  25 C25           -0.9224     0.1333    -1.4783 C.2     
  26 O26           -0.8920     1.1513    -2.1369 O.2     
  27 C27           -2.0112    -0.8823    -1.7108 C.3     
  28 H28           -1.0411    -1.7448     0.2100 H       
  29 H29            0.7297    -1.9417     0.1566 H       
  30 H30           -0.8490    -0.1304     2.0412 H       
  31 H31            0.0372    -1.6099     2.4840 H       
  32 H32            2.1578    -0.5520     1.7240 H       
  33 H33            0.3755     1.8891     1.2956 H       
  34 H34            2.1532     1.8798     1.1956 H       
  35 H35            2.0818     0.2882    -0.6667 H       
  36 H36            1.0340     1.6773    -1.0535 H       
  37 H37            3.1560     1.5030     3.1535 H       
  38 H38            1.8034     2.0266     8.1325 H       
  39 H39            0.7978     0.8718     6.0864 H       
  40 H40            5.5542     3.9701     6.5996 H       
  41 H41            5.9286     4.5430     3.1678 H       
  42 H42            8.0017     5.2617     2.0531 H       
  43 H43           10.1909     4.5412     5.6464 H       
  44 H44            8.1196     3.8317     6.7703 H       
  45 H45           -1.6080    -1.8854    -1.5721 H       
  46 H46           -2.8216    -0.7151    -1.0013 H       
  47 H47           -2.3916    -0.7809    -2.7273 H       
@<TRIPOS>BOND
   1    1    2 1
   2    1    6 1
   3    1   25 am
   4    2    3 1
   5    2   28 1
   6    2   29 1
   7    3    4 1
   8    3   30 1
   9    3   31 1
  10    4    5 1
  11    4    7 1
  12    4   32 1
  13    5    6 1
  14    5   33 1
  15    5   34 1
  16    6   35 1
  17    6   36 1
  18    7    8 2
  19    7    9 am
  20    9   13 1
  21    9   37 1
  22   10   11 1
  23   10   14 1
  24   10   38 1
  25   11   12 2
  26   12   13 1
  27   12   15 1
  28   13   14 2
  29   14   39 1
  30   15   16 am
  31   15   17 2
  32   16   18 1
  33   16   40 1
  34   18   19 ar
  35   18   23 ar
  36   19   20 ar
  37   19   41 1
  38   20   21 ar
  39   20   42 1
  40   21   22 ar
  41   21   24 1
  42   22   23 ar
  43   22   43 1
  44   23   44 1
  45   25   26 2
  46   25   27 1
  47   27   45 1
  48   27   46 1
  49   27   47 1

#	End of record

