#	Name: ASD05060056
#	Creating user name:	WinNT
#	Creation time:	15. 06. 2019 20:56

#	Modifying user name:	WinNT
#	Modification time:	15. 06. 2019 20:56

#	Program:	/corina/corina34_cracker 3.40 0067  02.08.2006

@<TRIPOS>MOLECULE
ASD05060056
  60   63    0    0    0
SMALL
NO_CHARGES


@<TRIPOS>ATOM
   1 C1            -2.4895    -2.9976    -0.0317 C.2     
   2 C2            -1.2333    -2.2166     0.0418 C.2     
   3 C3            -0.0394    -2.8485    -0.0228 C.2     
   4 C4             1.1966    -2.0694    -0.1582 C.2     
   5 O5            -2.4474    -4.2062    -0.1502 O.2     
   6 N6            -3.6793    -2.3684     0.0383 N.am    
   7 N7            -4.8676    -3.1072    -0.0313 N.am    
   8 C8            -5.3538    -3.8580     0.9721 C.2     
   9 C9            -6.6450    -4.5217     0.5469 C.3     
  10 C10           -6.6477    -4.3935    -0.9941 C.3     
  11 C11           -5.7447    -3.1560    -1.2070 C.3     
  12 O12           -4.8329    -3.9850     2.0600 O.2     
  13 O13            1.1416    -0.8652    -0.3306 O.2     
  14 O14           -1.2802    -0.8703     0.1738 O.3     
  15 C15            3.7061    -1.9899    -0.1052 C.2     
  16 C16            2.5020    -2.7429    -0.0856 C.2     
  17 C17            2.5798    -4.1325     0.0042 C.2     
  18 C18            3.8349    -4.7350     0.0716 C.2     
  19 C19            4.9595    -3.9732     0.0496 C.2     
  20 N20            4.8923    -2.6236    -0.0374 N.am    
  21 O21            3.6660    -0.7747    -0.1881 O.2     
  22 C22            6.1301    -1.8403    -0.0586 C.3     
  23 C23            6.5217    -1.4815     1.3517 C.ar    
  24 C24            7.1653    -2.4122     2.1499 C.ar    
  25 C25            7.5245    -2.0812     3.4453 C.ar    
  26 C26            7.2403    -0.8224     3.9404 C.ar    
  27 C27            6.5975     0.1057     3.1428 C.ar    
  28 C28            6.2438    -0.2218     1.8469 C.ar    
  29 F29            7.4421    -3.6424     1.6651 F       
  30 C30            3.9446    -6.2348     0.1696 C.3     
  31 C31            3.8250    -6.6540     1.6122 C.ar    
  32 C32            2.5821    -6.9418     2.1491 C.ar    
  33 C33            2.4734    -7.3269     3.4747 C.ar    
  34 C34            3.6053    -7.4239     4.2618 C.ar    
  35 C35            4.8469    -7.1368     3.7268 C.ar    
  36 C36            4.9586    -6.7570     2.3998 C.ar    
  37 F37            6.1730    -6.4822     1.8755 F       
  38 F38            1.4754    -6.8466     1.3801 F       
  39 H39            0.0043    -3.9265     0.0252 H       
  40 H40           -3.7129    -1.4040     0.1368 H       
  41 H41           -6.6500    -5.5708     0.8424 H       
  42 H42           -7.5011    -3.9998     0.9746 H       
  43 H43           -6.2176    -5.2800    -1.4601 H       
  44 H44           -7.6544    -4.2075    -1.3683 H       
  45 H45           -6.3486    -2.2505    -1.2649 H       
  46 H46           -5.1527    -3.2742    -2.1146 H       
  47 H47           -0.4155    -0.4575     0.3042 H       
  48 H48            1.6818    -4.7322     0.0216 H       
  49 H49            5.9255    -4.4531     0.1029 H       
  50 H50            6.9246    -2.4286    -0.5178 H       
  51 H51            5.9734    -0.9287    -0.6353 H       
  52 H52            8.0261    -2.8063     4.0689 H       
  53 H53            7.5204    -0.5639     4.9509 H       
  54 H54            6.3753     1.0888     3.5308 H       
  55 H55            5.7462     0.5058     1.2229 H       
  56 H56            3.1453    -6.6962    -0.4103 H       
  57 H57            4.9098    -6.5549    -0.2229 H       
  58 H58            1.5036    -7.5511     3.8939 H       
  59 H59            3.5196    -7.7239     5.2957 H       
  60 H60            5.7308    -7.2126     4.3428 H       
@<TRIPOS>BOND
   1    1    2 1
   2    1    5 2
   3    1    6 am
   4    2    3 2
   5    2   14 1
   6    3    4 1
   7    3   39 1
   8    4   13 2
   9    4   16 1
  10    6    7 1
  11    6   40 1
  12    7    8 am
  13    7   11 1
  14    8    9 1
  15    8   12 2
  16    9   10 1
  17    9   41 1
  18    9   42 1
  19   10   11 1
  20   10   43 1
  21   10   44 1
  22   11   45 1
  23   11   46 1
  24   14   47 1
  25   15   16 1
  26   15   20 am
  27   15   21 2
  28   16   17 2
  29   17   18 1
  30   17   48 1
  31   18   19 2
  32   18   30 1
  33   19   20 1
  34   19   49 1
  35   20   22 1
  36   22   23 1
  37   22   50 1
  38   22   51 1
  39   23   24 ar
  40   23   28 ar
  41   24   25 ar
  42   24   29 1
  43   25   26 ar
  44   25   52 1
  45   26   27 ar
  46   26   53 1
  47   27   28 ar
  48   27   54 1
  49   28   55 1
  50   30   31 1
  51   30   56 1
  52   30   57 1
  53   31   32 ar
  54   31   36 ar
  55   32   33 ar
  56   32   38 1
  57   33   34 ar
  58   33   58 1
  59   34   35 ar
  60   34   59 1
  61   35   36 ar
  62   35   60 1
  63   36   37 1

#	End of record

