#	Name: ASD05430528
#	Creating user name:	WinNT
#	Creation time:	15. 06. 2019 21:00

#	Modifying user name:	WinNT
#	Modification time:	15. 06. 2019 21:00

#	Program:	/corina/corina34_cracker 3.40 0067  02.08.2006

@<TRIPOS>MOLECULE
ASD05430528
  59   63    0    0    0
SMALL
NO_CHARGES


@<TRIPOS>ATOM
   1 C1            -0.1141     1.3101     0.7089 C.ar    
   2 C2            -0.1416    -0.0636     0.9473 C.ar    
   3 C3            -1.3533    -0.7415     0.9830 C.ar    
   4 C4            -2.5341    -0.0601     0.7832 C.ar    
   5 C5            -2.5143     1.3180     0.5435 C.ar    
   6 C6            -1.2947     2.0013     0.5127 C.ar    
   7 C7            -4.9353     1.3692     0.2114 C.2     
   8 C8            -3.7741     2.0476     0.3298 C.2     
   9 O9             1.0738     1.9704     0.6751 O.3     
  10 C10            1.3320    -1.6250     2.1797 C.2     
  11 N11            1.0566    -0.7620     1.1509 N.pl3   
  12 C12            2.5890    -2.0698     1.9899 C.2     
  13 N13            3.0722    -1.4973     0.8774 N.2     
  14 C14            2.1638    -0.7118     0.3657 C.2     
  15 C15            3.3255    -3.0420     2.8750 C.3     
  16 C16            1.0275     3.3768     0.4259 C.3     
  17 C17           -6.2518     2.0507     0.1671 C.2     
  18 O18           -4.9803     0.0003     0.1176 O.3     
  19 N19           -7.2521     1.4332    -0.5756 N.am    
  20 C20           -7.0465     0.2188    -1.1083 C.2     
  21 C21           -5.7391    -0.5028    -0.9864 C.3     
  22 O22           -7.9517    -0.3129    -1.7150 O.2     
  23 C23           -9.6125     1.1396    -1.0917 C.ar    
  24 C24           -9.8755     0.1090    -0.2086 C.ar    
  25 C25          -10.3508     1.2606    -2.2542 C.ar    
  26 C26          -11.3530     0.3514    -2.5347 C.ar    
  27 C27          -11.6173    -0.6813    -1.6510 C.ar    
  28 C28          -10.8769    -0.8017    -0.4872 C.ar    
  29 F29          -12.5972    -1.5705    -1.9239 F       
  30 C30           -8.5243     2.1357    -0.7838 C.3     
  31 C31           -8.8622     2.8913     0.5096 C.3     
  32 C32           -7.7201     3.8646     0.8142 C.3     
  33 N33           -6.4412     3.1601     0.8004 N.2     
  34 C34           -4.9375    -0.3143    -2.2759 C.3     
  35 H35           -1.3700    -1.8055     1.1676 H       
  36 H36           -3.4748    -0.5899     0.8112 H       
  37 H37           -1.2748     3.0653     0.3284 H       
  38 H38           -3.7699     3.1258     0.2678 H       
  39 H39            0.6698    -1.8932     2.9896 H       
  40 H40            2.2740    -0.1213    -0.5318 H       
  41 H41            3.1417    -4.0592     2.5293 H       
  42 H42            4.3944    -2.8321     2.8346 H       
  43 H43            2.9733    -2.9378     3.9012 H       
  44 H44            0.4432     3.8649     1.2060 H       
  45 H45            2.0405     3.7792     0.4252 H       
  46 H46            0.5634     3.5589    -0.5434 H       
  47 H47           -5.9304    -1.5652    -0.8358 H       
  48 H48           -9.2979     0.0153     0.6991 H       
  49 H49          -10.1444     2.0662    -2.9433 H       
  50 H50          -11.9301     0.4465    -3.4426 H       
  51 H51          -11.0820    -1.6070     0.2026 H       
  52 H52           -8.4253     2.8416    -1.6083 H       
  53 H53           -9.7911     3.4461     0.3778 H       
  54 H54           -8.9685     2.1825     1.3309 H       
  55 H55           -7.7066     4.6526     0.0613 H       
  56 H56           -7.8770     4.3093     1.7969 H       
  57 H57           -3.9960    -0.8584    -2.2012 H       
  58 H58           -5.5119    -0.6963    -3.1199 H       
  59 H59           -4.7335     0.7460    -2.4253 H       
@<TRIPOS>BOND
   1    1    2 ar
   2    1    9 1
   3    1    6 ar
   4    2    3 ar
   5    2   11 1
   6    3    4 ar
   7    3   35 1
   8    4    5 ar
   9    4   36 1
  10    5    6 ar
  11    5    8 1
  12    6   37 1
  13    7    8 2
  14    7   17 1
  15    7   18 1
  16    8   38 1
  17    9   16 1
  18   10   11 1
  19   10   12 2
  20   10   39 1
  21   11   14 1
  22   12   13 1
  23   12   15 1
  24   13   14 2
  25   14   40 1
  26   15   41 1
  27   15   42 1
  28   15   43 1
  29   16   44 1
  30   16   45 1
  31   16   46 1
  32   17   19 1
  33   17   33 2
  34   18   21 1
  35   19   20 am
  36   19   30 1
  37   20   22 2
  38   20   21 1
  39   21   34 1
  40   21   47 1
  41   23   24 ar
  42   23   25 ar
  43   23   30 1
  44   24   28 ar
  45   24   48 1
  46   25   26 ar
  47   25   49 1
  48   26   27 ar
  49   26   50 1
  50   27   28 ar
  51   27   29 1
  52   28   51 1
  53   30   31 1
  54   30   52 1
  55   31   32 1
  56   31   53 1
  57   31   54 1
  58   32   33 1
  59   32   55 1
  60   32   56 1
  61   34   57 1
  62   34   58 1
  63   34   59 1

#	End of record

