#	Name: ASD01914069
#	Creating user name:	WinNT
#	Creation time:	15. 06. 2019 20:02

#	Modifying user name:	WinNT
#	Modification time:	15. 06. 2019 20:02

#	Program:	/corina/corina34_cracker 3.40 0067  02.08.2006

@<TRIPOS>MOLECULE
ASD01914069
  52   54    0    0    0
SMALL
NO_CHARGES


@<TRIPOS>ATOM
   1 C1            -0.0169     1.3921     0.0097 C.ar    
   2 C2             0.0021    -0.0041     0.0020 C.ar    
   3 C3             2.4075     0.0362    -0.0207 C.ar    
   4 C4             2.3810     1.4237    -0.0130 C.ar    
   5 O5             3.5976    -0.6199    -0.0347 O.3     
   6 C6             4.7805     0.1819    -0.0408 C.3     
   7 C7             5.9934    -0.7123    -0.0563 C.ar    
   8 N8             7.1973    -0.1727    -0.0639 N.ar    
   9 C9             8.2893    -0.9087    -0.0775 C.ar    
  10 C10            8.2062    -2.3014    -0.0847 C.ar    
  11 C11            6.9421    -2.9036    -0.0768 C.ar    
  12 C12            5.8263    -2.0857    -0.0565 C.ar    
  13 C13            9.4322    -3.1274    -0.1009 C.2     
  14 N14           10.6432    -2.5359    -0.1088 N.am    
  15 O15            9.3480    -4.3400    -0.1071 O.2     
  16 C16            1.2225    -0.6805    -0.0133 C.ar    
  17 C17           11.8581    -3.3545    -0.1248 C.3     
  18 C18           -1.2268    -0.7393     0.0103 C.1     
  19 N19           -2.2016    -1.3225     0.0168 N.1     
  20 C20           13.0172    -2.5587     0.4786 C.3     
  21 C21            1.1712     2.0979     0.0021 C.ar    
  22 F22            1.1526     3.4487     0.0096 F       
  23 C23           12.1974    -3.7354    -1.5673 C.3     
  24 C24           14.2860    -3.4136     0.4618 C.3     
  25 C25           15.4452    -2.6178     1.0653 C.3     
  26 C26           15.6748    -1.3482     0.2430 C.3     
  27 C27           14.4060    -0.4933     0.2597 C.3     
  28 C28           13.2468    -1.2890    -0.3437 C.3     
  29 H29           -0.9591     1.9199     0.0170 H       
  30 H30            3.3068     1.9797    -0.0185 H       
  31 H31            4.7851     0.8159    -0.9274 H       
  32 H32            4.8008     0.8063     0.8524 H       
  33 H33            9.2574    -0.4300    -0.0834 H       
  34 H34            6.8407    -3.9788    -0.0821 H       
  35 H35            4.8353    -2.5148    -0.0499 H       
  36 H36           10.7104    -1.5683    -0.1039 H       
  37 H37            1.2429    -1.7603    -0.0189 H       
  38 H38           11.6946    -4.2590     0.4610 H       
  39 H39           12.7755    -2.2873     1.5062 H       
  40 H40           13.1013    -4.3445    -1.5792 H       
  41 H41           11.3716    -4.3023    -1.9972 H       
  42 H42           12.3610    -2.8309    -2.1531 H       
  43 H43           14.1225    -4.3181     1.0476 H       
  44 H44           14.5277    -3.6850    -0.5658 H       
  45 H45           15.2034    -2.3464     2.0929 H       
  46 H46           16.3491    -3.2268     1.0533 H       
  47 H47           16.5005    -0.7812     0.6729 H       
  48 H48           15.9165    -1.6196    -0.7846 H       
  49 H49           14.1643    -0.2219     1.2874 H       
  50 H50           14.5695     0.4112    -0.3261 H       
  51 H51           13.4886    -1.5605    -1.3713 H       
  52 H52           12.3429    -0.6800    -0.3317 H       
@<TRIPOS>BOND
   1    1    2 ar
   2    1   21 ar
   3    1   29 1
   4    2   16 ar
   5    2   18 1
   6    3    4 ar
   7    3    5 1
   8    3   16 ar
   9    4   21 ar
  10    4   30 1
  11    5    6 1
  12    6    7 1
  13    6   31 1
  14    6   32 1
  15    7    8 ar
  16    7   12 ar
  17    8    9 ar
  18    9   10 ar
  19    9   33 1
  20   10   11 ar
  21   10   13 1
  22   11   12 ar
  23   11   34 1
  24   12   35 1
  25   13   14 am
  26   13   15 2
  27   14   17 1
  28   14   36 1
  29   16   37 1
  30   17   20 1
  31   17   23 1
  32   17   38 1
  33   18   19 3
  34   20   24 1
  35   20   28 1
  36   20   39 1
  37   21   22 1
  38   23   40 1
  39   23   41 1
  40   23   42 1
  41   24   25 1
  42   24   43 1
  43   24   44 1
  44   25   26 1
  45   25   45 1
  46   25   46 1
  47   26   27 1
  48   26   47 1
  49   26   48 1
  50   27   28 1
  51   27   49 1
  52   27   50 1
  53   28   51 1
  54   28   52 1

#	End of record

