#	Name: ASD01882659
#	Creating user name:	WinNT
#	Creation time:	15. 06. 2019 19:45

#	Modifying user name:	WinNT
#	Modification time:	15. 06. 2019 19:45

#	Program:	/corina/corina34_cracker 3.40 0067  02.08.2006

@<TRIPOS>MOLECULE
ASD01882659
  50   55    0    0    0
SMALL
NO_CHARGES


@<TRIPOS>ATOM
   1 C1             1.0654     1.6876     1.7621 C.3     
   2 C2            -0.3249     1.0448     1.9557 C.3     
   3 N3            -0.1381    -0.3733     1.5702 N.pl3   
   4 C4             0.7581    -0.3178     0.3918 C.3     
   5 C5             1.7794     0.7892     0.7309 C.3     
   6 C6             1.4208     2.2341     0.3779 C.3     
   7 C7             0.2901     2.4513    -0.5943 C.ar    
   8 C8            -0.7818     3.2494    -0.2408 C.ar    
   9 C9            -1.8190     3.4487    -1.1326 C.ar    
  10 C10           -1.7842     2.8501    -2.3782 C.ar    
  11 C11           -0.7119     2.0527    -2.7321 C.ar    
  12 C12            0.3274     1.8570    -1.8419 C.ar    
  13 C13           -0.8786    -2.9850     4.0432 C.2     
  14 C14           -0.3160    -1.8413     3.4515 C.2     
  15 C15           -0.6813    -1.5017     2.1772 C.2     
  16 C16           -1.6131    -2.3032     1.4823 C.2     
  17 C17           -2.1400    -3.3957     2.0690 C.2     
  18 N18           -1.7825    -3.7429     3.3391 N.pl3   
  19 N19           -1.4780    -4.6101     5.2874 N.2     
  20 N20           -0.7299    -3.5652     5.2244 N.2     
  21 C21           -2.1378    -4.7648     4.1698 C.2     
  22 C22            0.6766    -0.9991     4.2108 C.3     
  23 F23            0.0126     0.0751     4.8128 F       
  24 F24            1.2919    -1.7785     5.1964 F       
  25 F25            1.6467    -0.5122     3.3282 F       
  26 C26           -3.1119    -5.8710     3.8558 C.3     
  27 C27           -2.3627    -7.0466     3.2253 C.3     
  28 C28           -3.1599    -8.3209     2.9398 C.3     
  29 C29           -2.7182    -7.4199     1.7848 C.3     
  30 H30            1.5617     2.0933     2.6437 H       
  31 H31           -0.6355     1.1176     2.9980 H       
  32 H32           -1.0582     1.5220     1.3056 H       
  33 H33            1.2646    -1.2731     0.2542 H       
  34 H34            0.1939    -0.0534    -0.5026 H       
  35 H35            2.8224     0.4953     0.8494 H       
  36 H36            2.2372     2.9536     0.3164 H       
  37 H37           -0.8090     3.7171     0.7324 H       
  38 H38           -2.6567     4.0717    -0.8561 H       
  39 H39           -2.5949     3.0052    -3.0747 H       
  40 H40           -0.6848     1.5848    -3.7051 H       
  41 H41            1.1669     1.2370    -2.1197 H       
  42 H42           -1.9050    -2.0394     0.4765 H       
  43 H43           -2.8520    -4.0021     1.5289 H       
  44 H44           -3.5966    -6.2000     4.7750 H       
  45 H45           -3.8655    -5.5045     3.1587 H       
  46 H46           -1.3235    -7.1615     3.5335 H       
  47 H47           -2.6451    -9.2741     3.0598 H       
  48 H48           -4.2181    -8.3217     3.2011 H       
  49 H49           -3.4858    -6.8280     1.2862 H       
  50 H50           -1.9128    -7.7804     1.1449 H       
@<TRIPOS>BOND
   1    1    2 1
   2    1    6 1
   3    1    5 1
   4    1   30 1
   5    2    3 1
   6    2   31 1
   7    2   32 1
   8    3    4 1
   9    3   15 1
  10    4    5 1
  11    4   33 1
  12    4   34 1
  13    5    6 1
  14    5   35 1
  15    6    7 1
  16    6   36 1
  17    7    8 ar
  18    7   12 ar
  19    8    9 ar
  20    8   37 1
  21    9   10 ar
  22    9   38 1
  23   10   11 ar
  24   10   39 1
  25   11   12 ar
  26   11   40 1
  27   12   41 1
  28   13   14 1
  29   13   18 1
  30   13   20 2
  31   14   15 2
  32   14   22 1
  33   15   16 1
  34   16   17 2
  35   16   42 1
  36   17   18 1
  37   17   43 1
  38   18   21 1
  39   19   20 1
  40   19   21 2
  41   21   26 1
  42   22   23 1
  43   22   24 1
  44   22   25 1
  45   26   27 1
  46   26   44 1
  47   26   45 1
  48   27   28 1
  49   27   29 1
  50   27   46 1
  51   28   29 1
  52   28   47 1
  53   28   48 1
  54   29   49 1
  55   29   50 1

#	End of record

