#	Name: ASD00170098
#	Creating user name:	WinNT
#	Creation time:	15. 06. 2019 18:31

#	Modifying user name:	WinNT
#	Modification time:	15. 06. 2019 18:31

#	Program:	/corina/corina34_cracker 3.40 0067  02.08.2006

@<TRIPOS>MOLECULE
ASD00170098
  43   46    0    0    0
SMALL
NO_CHARGES


@<TRIPOS>ATOM
   1 C1             0.0021     1.3496    -0.0676 C.2     
   2 C2             0.0217     0.0145     0.2011 C.2     
   3 C3            -1.3120    -0.5536     0.2776 C.2     
   4 C4            -2.3021     0.3755     0.0631 C.2     
   5 S5            -1.6488     1.9222    -0.2220 S.3     
   6 N6            -3.6506     0.0928     0.0819 N.pl3   
   7 C7             1.2019     2.1973    -0.2036 C.ar    
   8 C8             2.2679     1.7816    -1.0055 C.ar    
   9 C9             3.3864     2.5793    -1.1279 C.ar    
  10 C10            3.4546     3.7885    -0.4584 C.ar    
  11 C11            2.4028     4.2064     0.3380 C.ar    
  12 C12            1.2753     3.4223     0.4644 C.ar    
  13 C13           -1.5744    -1.9649     0.5537 C.2     
  14 O14           -1.7437    -2.7442    -0.3667 O.2     
  15 C15            1.2627    -0.7686     0.3934 C.ar    
  16 C16            2.0743    -0.5334     1.5038 C.ar    
  17 C17            3.2299    -1.2664     1.6778 C.ar    
  18 C18            3.5852    -2.2338     0.7529 C.ar    
  19 C19            2.7837    -2.4715    -0.3509 C.ar    
  20 C20            1.6226    -1.7490    -0.5321 C.ar    
  21 C21           -1.6343    -2.4464     1.9507 C.ar    
  22 Cl22           5.0415    -3.1516     0.9778 Cl      
  23 C23           -1.7733    -3.8098     2.2167 C.ar    
  24 C24           -1.8280    -4.2529     3.5214 C.ar    
  25 C25           -1.7454    -3.3482     4.5669 C.ar    
  26 C26           -1.6079    -1.9942     4.3093 C.ar    
  27 C27           -1.5462    -1.5399     3.0087 C.ar    
  28 Cl28          -1.8151    -3.9135     6.2069 Cl      
  29 H29           -3.9567    -0.7944     0.3270 H       
  30 H30           -4.2937     0.7809    -0.1500 H       
  31 H31            2.2163     0.8378    -1.5280 H       
  32 H32            4.2111     2.2592    -1.7474 H       
  33 H33            4.3330     4.4088    -0.5576 H       
  34 H34            2.4632     5.1510     0.8581 H       
  35 H35            0.4552     3.7497     1.0862 H       
  36 H36            1.7986     0.2213     2.2254 H       
  37 H37            3.8589    -1.0853     2.5368 H       
  38 H38            3.0660    -3.2270    -1.0692 H       
  39 H39            0.9982    -1.9353    -1.3934 H       
  40 H40           -1.8381    -4.5161     1.4022 H       
  41 H41           -1.9359    -5.3074     3.7283 H       
  42 H42           -1.5447    -1.2934     5.1286 H       
  43 H43           -1.4389    -0.4840     2.8090 H       
@<TRIPOS>BOND
   1    1    2 2
   2    1    7 1
   3    1    5 1
   4    2    3 1
   5    2   15 1
   6    3    4 2
   7    3   13 1
   8    4    5 1
   9    4    6 1
  10    6   29 1
  11    6   30 1
  12    7    8 ar
  13    7   12 ar
  14    8    9 ar
  15    8   31 1
  16    9   10 ar
  17    9   32 1
  18   10   11 ar
  19   10   33 1
  20   11   12 ar
  21   11   34 1
  22   12   35 1
  23   13   14 2
  24   13   21 1
  25   15   16 ar
  26   15   20 ar
  27   16   17 ar
  28   16   36 1
  29   17   18 ar
  30   17   37 1
  31   18   19 ar
  32   18   22 1
  33   19   20 ar
  34   19   38 1
  35   20   39 1
  36   21   23 ar
  37   21   27 ar
  38   23   24 ar
  39   23   40 1
  40   24   25 ar
  41   24   41 1
  42   25   26 ar
  43   25   28 1
  44   26   27 ar
  45   26   42 1
  46   27   43 1

#	End of record

