#	Name: ASD01200009
#	Creating user name:	WinNT
#	Creation time:	15. 06. 2019 19:08

#	Modifying user name:	WinNT
#	Modification time:	15. 06. 2019 19:08

#	Program:	/corina/corina34_cracker 3.40 0067  02.08.2006

@<TRIPOS>MOLECULE
ASD01200009
  52   54    0    0    0
SMALL
NO_CHARGES


@<TRIPOS>ATOM
   1 C1             0.3633     1.5370    -0.8117 C.2     
   2 N2             0.5006     0.2140    -1.0294 N.am    
   3 C3             1.7447    -0.3109    -1.3527 C.ar    
   4 O4             1.3427     2.2567    -0.8058 O.2     
   5 C5            -0.9790     2.1135    -0.5861 C.ar    
   6 C6             1.8997    -1.6905    -1.4635 C.ar    
   7 C7             3.1280    -2.2052    -1.7829 C.ar    
   8 C8             4.1933    -1.3157    -1.9884 C.ar    
   9 C9             3.9649     0.0562    -1.8606 C.ar    
  10 N10            2.7667     0.5086    -1.5568 N.ar    
  11 C11           -1.1234     3.4828    -0.3606 C.ar    
  12 C12           -2.3832     4.0188    -0.1496 C.ar    
  13 C13           -3.5001     3.1963    -0.1619 C.ar    
  14 C14           -3.3611     1.8341    -0.3859 C.ar    
  15 C15           -2.1061     1.2907    -0.6039 C.ar    
  16 O16           -4.4587     1.0327    -0.3969 O.3     
  17 C17           -5.7225     1.6603    -0.1710 C.3     
  18 C18           -6.8310     0.6069    -0.2197 C.3     
  19 C19           -8.1638     1.2688     0.0185 C.2     
  20 O20           -2.5250     5.3525     0.0702 O.3     
  21 C21           -1.3265     6.1222     0.1845 C.3     
  22 C22           -0.8473     6.5300    -1.2102 C.3     
  23 C23           -1.6033     7.3766     1.0156 C.3     
  24 C24           -8.9396     1.7724    -1.0112 C.2     
  25 C25          -10.0913     2.3259    -0.6284 C.2     
  26 S26          -10.2411     2.2253     1.1212 S.3     
  27 C27           -8.6877     1.4086     1.2372 C.2     
  28 C28            5.5347    -1.8218    -2.3338 C.2     
  29 O29            5.7236    -3.0172    -2.4423 O.2     
  30 O30            6.5508    -0.9587    -2.5290 O.3     
  31 H31           -0.2698    -0.3714    -0.9602 H       
  32 H32            1.0592    -2.3483    -1.2987 H       
  33 H33            3.2733    -3.2715    -1.8743 H       
  34 H34            4.7767     0.7514    -2.0158 H       
  35 H35           -0.2543     4.1238    -0.3501 H       
  36 H36           -4.4808     3.6175     0.0036 H       
  37 H37           -1.9987     0.2303    -0.7781 H       
  38 H38           -5.7200     2.1402     0.8077 H       
  39 H39           -5.8991     2.4096    -0.9426 H       
  40 H40           -6.8335     0.1270    -1.1984 H       
  41 H41           -6.6544    -0.1424     0.5519 H       
  42 H42           -0.5565     5.5252     0.6731 H       
  43 H43           -1.6173     7.1270    -1.6988 H       
  44 H44            0.0669     7.1171    -1.1230 H       
  45 H45           -0.6501     5.6363    -1.8023 H       
  46 H46           -1.9446     7.0861     2.0092 H       
  47 H47           -0.6890     7.9638     1.1028 H       
  48 H48           -2.3733     7.9736     0.5270 H       
  49 H49           -8.6354     1.7215    -2.0463 H       
  50 H50          -10.8200     2.7687    -1.2912 H       
  51 H51           -8.2262     1.0760     2.1552 H       
  52 H52            7.4117    -1.3376    -2.7535 H       
@<TRIPOS>BOND
   1    1    2 am
   2    1    4 2
   3    1    5 1
   4    2    3 1
   5    2   31 1
   6    3    6 ar
   7    3   10 ar
   8    5   11 ar
   9    5   15 ar
  10    6    7 ar
  11    6   32 1
  12    7    8 ar
  13    7   33 1
  14    8    9 ar
  15    8   28 1
  16    9   10 ar
  17    9   34 1
  18   11   12 ar
  19   11   35 1
  20   12   13 ar
  21   12   20 1
  22   13   14 ar
  23   13   36 1
  24   14   15 ar
  25   14   16 1
  26   15   37 1
  27   16   17 1
  28   17   18 1
  29   17   38 1
  30   17   39 1
  31   18   19 1
  32   18   40 1
  33   18   41 1
  34   19   24 1
  35   19   27 2
  36   20   21 1
  37   21   22 1
  38   21   23 1
  39   21   42 1
  40   22   43 1
  41   22   44 1
  42   22   45 1
  43   23   46 1
  44   23   47 1
  45   23   48 1
  46   24   25 2
  47   24   49 1
  48   25   26 1
  49   25   50 1
  50   26   27 1
  51   27   51 1
  52   28   29 2
  53   28   30 1
  54   30   52 1

#	End of record

