#	Name: ASD01911462
#	Creating user name:	WinNT
#	Creation time:	15. 06. 2019 19:57

#	Modifying user name:	WinNT
#	Modification time:	15. 06. 2019 19:57

#	Program:	/corina/corina34_cracker 3.40 0067  02.08.2006

@<TRIPOS>MOLECULE
ASD01911462
  35   35    0    0    0
SMALL
NO_CHARGES


@<TRIPOS>ATOM
   1 C1            -0.0187     1.5258     0.0104 C.3     
   2 C2             0.0021    -0.0041     0.0020 C.3     
   3 C3            -1.4333    -0.5336     0.0129 C.3     
   4 C4            -2.1733    -0.0268    -1.2266 C.3     
   5 O5             0.6709    -0.4649    -1.1737 O.3     
   6 C6            -1.4126    -2.0635     0.0045 C.3     
   7 C7            -2.1494    -0.0402     1.2717 C.3     
   8 C8             0.7421    -0.5109     1.2415 C.3     
   9 N9             1.3557     2.0329     0.0000 N.pl3   
  10 C10            1.5912     3.4030     0.0051 C.ar    
  11 C11            0.5169     4.2871     0.0201 C.ar    
  12 C12            0.7653     5.6475     0.0251 C.ar    
  13 C13            2.0854     6.0804     0.0148 C.ar    
  14 C14            3.1028     5.1471     0.0001 C.ar    
  15 N15            2.8357     3.8547     0.0011 N.ar    
  16 I16            2.5276     8.1282     0.0209 I       
  17 H17           -0.5459     1.8868    -0.8726 H       
  18 H18           -0.5289     1.8773     0.9072 H       
  19 H19           -1.6631    -0.3783    -2.1234 H       
  20 H20           -3.1959    -0.4041    -1.2189 H       
  21 H21           -2.1881     1.0631    -1.2207 H       
  22 H22            0.2557    -0.1806    -1.9994 H       
  23 H23           -0.8854    -2.4246     0.8875 H       
  24 H24           -2.4352    -2.4408     0.0122 H       
  25 H25           -0.9024    -2.4150    -0.8923 H       
  26 H26           -2.1642     1.0497     1.2777 H       
  27 H27           -3.1720    -0.4175     1.2794 H       
  28 H28           -1.6223    -0.4013     2.1547 H       
  29 H29            0.2319    -0.1594     2.1383 H       
  30 H30            0.7568    -1.6008     1.2356 H       
  31 H31            1.7647    -0.1336     1.2338 H       
  32 H32            2.1015     1.4126    -0.0104 H       
  33 H33           -0.4973     3.9158     0.0275 H       
  34 H34           -0.0486     6.3574     0.0363 H       
  35 H35            4.1305     5.4790    -0.0083 H       
@<TRIPOS>BOND
   1    1    2 1
   2    1    9 1
   3    1   17 1
   4    1   18 1
   5    2    3 1
   6    2    5 1
   7    2    8 1
   8    3    4 1
   9    3    6 1
  10    3    7 1
  11    4   19 1
  12    4   20 1
  13    4   21 1
  14    5   22 1
  15    6   23 1
  16    6   24 1
  17    6   25 1
  18    7   26 1
  19    7   27 1
  20    7   28 1
  21    8   29 1
  22    8   30 1
  23    8   31 1
  24    9   10 1
  25    9   32 1
  26   10   11 ar
  27   10   15 ar
  28   11   12 ar
  29   11   33 1
  30   12   13 ar
  31   12   34 1
  32   13   14 ar
  33   13   16 1
  34   14   15 ar
  35   14   35 1

#	End of record

