#	Name: ASD03330847
#	Creating user name:	WinNT
#	Creation time:	15. 06. 2019 20:38

#	Modifying user name:	WinNT
#	Modification time:	15. 06. 2019 20:38

#	Program:	/corina/corina34_cracker 3.40 0067  02.08.2006

@<TRIPOS>MOLECULE
ASD03330847
  62   64    0    0    0
SMALL
NO_CHARGES


@<TRIPOS>ATOM
   1 C1            -0.0013     2.2383    -0.9274 C.2     
   2 N2            -0.0649     1.0942    -1.6465 N.pl3   
   3 C3             1.3186     2.5269    -0.7467 C.2     
   4 N4             2.0378     1.5696    -1.3696 N.2     
   5 C5             1.2149     0.7073    -1.9182 C.2     
   6 C6             1.6090    -0.4855    -2.7003 C.ar    
   7 C7             2.7896    -0.4952    -3.4507 C.ar    
   8 C8             1.8628     3.6782    -0.0046 C.2     
   9 O9             1.1086     4.4777     0.5158 O.2     
  10 C10            3.7373     4.9892     0.8348 C.3     
  11 N11            3.1964     3.8449     0.0972 N.am    
  12 C12            3.1188    -1.6289    -4.1654 C.ar    
  13 N13            2.3378    -2.6917    -4.1469 N.ar    
  14 C14            1.2163    -2.7244    -3.4528 C.ar    
  15 C15            0.8140    -1.6371    -2.7052 C.ar    
  16 C16           -1.2968     0.4041    -2.0391 C.3     
  17 C17           -2.2828     1.4241    -2.6167 C.3     
  18 C18           -3.1162     2.0292    -1.4913 C.3     
  19 N19           -2.3317     2.1437    -0.2601 N.3     
  20 C20           -1.1808     3.0406    -0.4421 C.3     
  21 C21           -3.1721     2.5865     0.8604 C.3     
  22 C22            3.8142     4.6460     2.3238 C.3     
  23 C23            4.6631     3.3873     2.5139 C.3     
  24 C24            4.4522     5.8109     3.0834 C.3     
  25 C25            2.4043     4.3966     2.8632 C.3     
  26 C26            5.1172     5.3109     0.3215 C.2     
  27 O27            5.7397     4.4804    -0.3059 O.2     
  28 N28            5.6596     6.5215     0.5597 N.am    
  29 C29            6.9557     6.8717    -0.0265 C.3     
  30 C30            4.3874    -1.6528    -4.9784 C.3     
  31 H31            3.4336     0.3715    -3.4707 H       
  32 H32            3.0869     5.8525     0.6941 H       
  33 H33            3.7980     3.2072    -0.3179 H       
  34 H34            0.6072    -3.6162    -3.4665 H       
  35 H35           -0.1051    -1.6710    -2.1391 H       
  36 H36           -1.0679    -0.3488    -2.7934 H       
  37 H37           -1.7391    -0.0763    -1.1663 H       
  38 H38           -1.7305     2.2150    -3.1243 H       
  39 H39           -2.9416     0.9281    -3.3294 H       
  40 H40           -3.4577     3.0198    -1.7917 H       
  41 H41           -3.9823     1.3939    -1.3061 H       
  42 H42           -0.9335     3.5134     0.5084 H       
  43 H43           -1.4281     3.8061    -1.1775 H       
  44 H44           -3.9724     1.8644     1.0219 H       
  45 H45           -2.5646     2.6633     1.7621 H       
  46 H46           -3.6030     3.5606     0.6286 H       
  47 H47            5.6675     3.5651     2.1296 H       
  48 H48            4.7178     3.1428     3.5747 H       
  49 H49            4.2086     2.5575     1.9727 H       
  50 H50            3.8543     6.7105     2.9377 H       
  51 H51            4.4955     5.5715     4.1459 H       
  52 H52            5.4612     5.9805     2.7078 H       
  53 H53            1.9498     3.5667     2.3220 H       
  54 H54            2.4591     4.1521     3.9240 H       
  55 H55            1.7996     5.2933     2.7278 H       
  56 H56            5.1917     7.1610     1.1192 H       
  57 H57            7.7136     6.1703     0.3225 H       
  58 H58            6.8882     6.8226    -1.1133 H       
  59 H59            7.2297     7.8826     0.2753 H       
  60 H60            5.2072    -2.0216    -4.3618 H       
  61 H61            4.2556    -2.3095    -5.8383 H       
  62 H62            4.6171    -0.6445    -5.3230 H       
@<TRIPOS>BOND
   1    1    2 1
   2    1    3 2
   3    1   20 1
   4    2   16 1
   5    2    5 1
   6    3    4 1
   7    3    8 1
   8    4    5 2
   9    5    6 1
  10    6    7 ar
  11    6   15 ar
  12    7   12 ar
  13    7   31 1
  14    8    9 2
  15    8   11 am
  16   10   11 1
  17   10   22 1
  18   10   26 1
  19   10   32 1
  20   11   33 1
  21   12   13 ar
  22   12   30 1
  23   13   14 ar
  24   14   15 ar
  25   14   34 1
  26   15   35 1
  27   16   17 1
  28   16   36 1
  29   16   37 1
  30   17   18 1
  31   17   38 1
  32   17   39 1
  33   18   19 1
  34   18   40 1
  35   18   41 1
  36   19   20 1
  37   19   21 1
  38   20   42 1
  39   20   43 1
  40   21   44 1
  41   21   45 1
  42   21   46 1
  43   22   23 1
  44   22   24 1
  45   22   25 1
  46   23   47 1
  47   23   48 1
  48   23   49 1
  49   24   50 1
  50   24   51 1
  51   24   52 1
  52   25   53 1
  53   25   54 1
  54   25   55 1
  55   26   27 2
  56   26   28 am
  57   28   29 1
  58   28   56 1
  59   29   57 1
  60   29   58 1
  61   29   59 1
  62   30   60 1
  63   30   61 1
  64   30   62 1

#	End of record

