#	Name: ASD01410897
#	Creating user name:	WinNT
#	Creation time:	15. 06. 2019 19:18

#	Modifying user name:	WinNT
#	Modification time:	15. 06. 2019 19:18

#	Program:	/corina/corina34_cracker 3.40 0067  02.08.2006

@<TRIPOS>MOLECULE
ASD01410897
  66   67    0    0    0
SMALL
NO_CHARGES


@<TRIPOS>ATOM
   1 S1            -2.4574    -0.3082     2.1272 S.3     
   2 C2            -1.5249    -1.6857     1.5581 C.2     
   3 C3            -0.2762    -1.2668     1.1619 C.2     
   4 C4            -0.0596     0.0830     1.2995 C.2     
   5 C5            -1.1169     0.7825     1.8054 C.2     
   6 C6            -1.1320     2.1952     2.0389 C.1     
   7 C7            -1.1445     3.3535     2.2303 C.1     
   8 C8            -1.1600     4.8057     2.4703 C.3     
   9 C9             0.1889     5.4039     2.0659 C.3     
  10 C10           -2.2725     5.4481     1.6392 C.3     
  11 C11           -1.9880    -3.0210     1.5148 C.2     
  12 N12            0.6908    -2.1403     0.6622 N.am    
  13 O13           -3.1993    -3.3321     2.0231 O.3     
  14 O14           -1.2944    -3.8899     1.0193 O.2     
  15 C15            1.6626    -2.7543     1.5704 C.3     
  16 C16            0.7306    -2.4189    -0.6558 C.2     
  17 C17           -0.1945    -1.7027    -1.6057 C.3     
  18 O18            1.5110    -3.2462    -1.0774 O.2     
  19 C19            3.0608    -2.2154     1.2613 C.3     
  20 C20            1.2994    -2.4212     2.9946 C.2     
  21 C21           -0.5528    -2.6323    -2.7668 C.3     
  22 C22           -1.4920    -1.9052    -3.7312 C.3     
  23 C23           -0.7971    -0.6551    -4.2745 C.3     
  24 C24           -0.4387     0.2746    -3.1134 C.3     
  25 C25            0.5005    -0.4526    -2.1490 C.3     
  26 C26           -1.7363     0.0721    -5.2389 C.3     
  27 N27            1.3782    -3.3691     3.9494 N.am    
  28 O28            0.9361    -1.3002     3.2814 O.2     
  29 C29            1.0251    -3.0453     5.3339 C.3     
  30 C30            1.8170    -4.7232     3.6029 C.3     
  31 O31            3.4580    -2.6421    -0.0434 O.3     
  32 C32           -1.4126     5.0745     3.9551 C.3     
  33 H33            0.8741     0.5536     1.0290 H       
  34 H34            0.3688     5.2124     1.0081 H       
  35 H35            0.1773     6.4793     2.2436 H       
  36 H36            0.9814     4.9463     2.6580 H       
  37 H37           -3.2335     5.0219     1.9273 H       
  38 H38           -2.2840     6.5234     1.8169 H       
  39 H39           -2.0925     5.2565     0.5814 H       
  40 H40           -3.4286    -4.2685     1.9480 H       
  41 H41            1.6522    -3.8360     1.4363 H       
  42 H42           -1.1034    -1.4130    -1.0784 H       
  43 H43            3.0468    -1.1261     1.2988 H       
  44 H44            3.7678    -2.5953     1.9988 H       
  45 H45            0.3561    -2.9221    -3.2941 H       
  46 H46           -1.0479    -3.5229    -2.3798 H       
  47 H47           -1.7473    -2.5675    -4.5584 H       
  48 H48           -2.4009    -1.6154    -3.2040 H       
  49 H49            0.1119    -0.9448    -4.8018 H       
  50 H50            0.0563     1.1652    -3.5004 H       
  51 H51           -1.3477     0.5643    -2.5861 H       
  52 H52            0.7557     0.2097    -1.3218 H       
  53 H53            1.4094    -0.7423    -2.6762 H       
  54 H54           -2.6452     0.3619    -4.7116 H       
  55 H55           -1.2412     0.9627    -5.6260 H       
  56 H56           -1.9915    -0.5902    -6.0661 H       
  57 H57           -0.0369    -3.2332     5.4915 H       
  58 H58            1.6087    -3.6672     6.0127 H       
  59 H59            1.2409    -1.9945     5.5276 H       
  60 H60            2.9003    -4.7908     3.7028 H       
  61 H61            1.3448    -5.4409     4.2737 H       
  62 H62            1.5323    -4.9453     2.5745 H       
  63 H63            4.3368    -2.3362    -0.3066 H       
  64 H64           -0.6201     4.6169     4.5472 H       
  65 H65           -1.4242     6.1499     4.1328 H       
  66 H66           -2.3736     4.6484     4.2432 H       
@<TRIPOS>BOND
   1    1    2 1
   2    1    5 1
   3    2    3 2
   4    2   11 1
   5    3    4 1
   6    3   12 1
   7    4    5 2
   8    4   33 1
   9    5    6 1
  10    6    7 3
  11    7    8 1
  12    8    9 1
  13    8   10 1
  14    8   32 1
  15    9   34 1
  16    9   35 1
  17    9   36 1
  18   10   37 1
  19   10   38 1
  20   10   39 1
  21   11   13 1
  22   11   14 2
  23   12   15 1
  24   12   16 am
  25   13   40 1
  26   15   19 1
  27   15   20 1
  28   15   41 1
  29   16   18 2
  30   16   17 1
  31   17   21 1
  32   17   25 1
  33   17   42 1
  34   19   31 1
  35   19   43 1
  36   19   44 1
  37   20   27 am
  38   20   28 2
  39   21   22 1
  40   21   45 1
  41   21   46 1
  42   22   23 1
  43   22   47 1
  44   22   48 1
  45   23   24 1
  46   23   26 1
  47   23   49 1
  48   24   25 1
  49   24   50 1
  50   24   51 1
  51   25   52 1
  52   25   53 1
  53   26   54 1
  54   26   55 1
  55   26   56 1
  56   27   29 1
  57   27   30 1
  58   29   57 1
  59   29   58 1
  60   29   59 1
  61   30   60 1
  62   30   61 1
  63   30   62 1
  64   31   63 1
  65   32   64 1
  66   32   65 1
  67   32   66 1

#	End of record

