#	Name: ASD01917993
#	Creating user name:	WinNT
#	Creation time:	15. 06. 2019 20:10

#	Modifying user name:	WinNT
#	Modification time:	15. 06. 2019 20:10

#	Program:	/corina/corina34_cracker 3.40 0067  02.08.2006

@<TRIPOS>MOLECULE
ASD01917993
  39   41    0    0    0
SMALL
NO_CHARGES


@<TRIPOS>ATOM
   1 C1            -0.1509     1.1132    -0.1311 C.ar    
   2 C2            -0.2070    -0.2278    -0.4870 C.ar    
   3 C3             0.9543    -0.9749    -0.5724 C.ar    
   4 C4             2.1771    -0.3910    -0.3040 C.ar    
   5 C5             2.2423     0.9564     0.0540 C.ar    
   6 C6             1.0699     1.7082     0.1395 C.ar    
   7 O7            -1.2943     1.8436    -0.0538 O.3     
   8 C8            -2.0732     1.6945     1.0498 C.ar    
   9 C9             3.5489     1.5847     0.3424 C.2     
  10 N10            4.6798     0.8562     0.2599 N.am    
  11 O11            3.6034     2.7583     0.6539 O.2     
  12 C12           -2.5339     0.7034     3.1787 C.ar    
  13 C13           -1.6977     0.8217     2.0623 C.ar    
  14 C14           -3.2517     2.4175     1.1812 C.ar    
  15 N15           -4.0166     2.2822     2.2468 N.ar    
  16 C16           -3.7041     1.4630     3.2294 C.ar    
  17 C17            5.9185     1.4713     0.4281 C.ar    
  18 N18            5.9753     2.7450     0.7846 N.ar    
  19 C19            7.0836     0.7404     0.2255 C.ar    
  20 C20            8.3074     1.3636     0.3964 C.ar    
  21 C21            8.3234     2.7016     0.7654 C.ar    
  22 C22            7.1270     3.3651     0.9548 C.ar    
  23 Cl23           0.8745    -2.6510    -1.0175 Cl      
  24 C24           -2.1943    -0.1821     4.2516 C.1     
  25 C25            7.1375     4.8164     1.3606 C.3     
  26 N26           -1.9248    -0.8846     5.1027 N.1     
  27 H27           -1.1604    -0.6893    -0.6975 H       
  28 H28            3.0819    -0.9769    -0.3707 H       
  29 H29            1.1145     2.7512     0.4163 H       
  30 H30            4.6313    -0.0964     0.0835 H       
  31 H31           -0.7848     0.2491     1.9903 H       
  32 H32           -3.5460     3.1014     0.3988 H       
  33 H33           -4.3578     1.3809     4.0851 H       
  34 H34            7.0343    -0.2998    -0.0609 H       
  35 H35            9.2291     0.8210     0.2463 H       
  36 H36            9.2617     3.2172     0.9072 H       
  37 H37            7.1428     4.8895     2.4482 H       
  38 H38            8.0286     5.2993     0.9597 H       
  39 H39            6.2487     5.3100     0.9676 H       
@<TRIPOS>BOND
   1    1    2 ar
   2    1    6 ar
   3    1    7 1
   4    2    3 ar
   5    2   27 1
   6    3    4 ar
   7    3   23 1
   8    4    5 ar
   9    4   28 1
  10    5    6 ar
  11    5    9 1
  12    6   29 1
  13    7    8 1
  14    8   14 ar
  15    8   13 ar
  16    9   10 am
  17    9   11 2
  18   10   17 1
  19   10   30 1
  20   12   13 ar
  21   12   16 ar
  22   12   24 1
  23   13   31 1
  24   14   15 ar
  25   14   32 1
  26   15   16 ar
  27   16   33 1
  28   17   19 ar
  29   17   18 ar
  30   18   22 ar
  31   19   20 ar
  32   19   34 1
  33   20   21 ar
  34   20   35 1
  35   21   22 ar
  36   21   36 1
  37   22   25 1
  38   24   26 3
  39   25   37 1
  40   25   38 1
  41   25   39 1

#	End of record

