#	Name: ASD01884008
#	Creating user name:	WinNT
#	Creation time:	15. 06. 2019 19:47

#	Modifying user name:	WinNT
#	Modification time:	15. 06. 2019 19:47

#	Program:	/corina/corina34_cracker 3.40 0067  02.08.2006

@<TRIPOS>MOLECULE
ASD01884008
  52   56    0    0    0
SMALL
NO_CHARGES


@<TRIPOS>ATOM
   1 F1             0.1450     0.0131    -0.2626 F       
   2 C2             0.0734     1.4065    -0.1602 C.3     
   3 F3             1.3535     1.9513    -0.3077 F       
   4 O4            -0.7821     1.9161    -1.1850 O.3     
   5 C5            -0.4231     1.6624    -2.4715 C.ar    
   6 C6             0.4012     2.5498    -3.1516 C.ar    
   7 F7             0.8475     3.6659    -2.5349 F       
   8 C8             0.7652     2.2897    -4.4605 C.ar    
   9 C9             0.3090     1.1478    -5.0921 C.ar    
  10 C10           -0.5129     0.2616    -4.4163 C.ar    
  11 F11           -0.9570    -0.8538    -5.0359 F       
  12 C12           -0.8746     0.5146    -3.1048 C.ar    
  13 C13           -1.7637    -0.4534    -2.3675 C.3     
  14 C14           -3.0985    -0.5827    -3.1048 C.3     
  15 C15           -4.0123    -1.5406    -2.3340 C.3     
  16 N16           -3.3053    -2.8137    -2.1381 N.pl3   
  17 C17           -1.9727    -2.7938    -1.5199 C.3     
  18 C18           -1.0817    -1.8218    -2.2998 C.3     
  19 C19           -3.8883    -4.0178    -2.5311 C.2     
  20 C20           -4.1573    -4.2604    -3.8912 C.2     
  21 N21           -4.7027    -5.3819    -4.2772 N.2     
  22 N22           -5.0342    -6.3720    -3.3511 N.pl3   
  23 C23           -5.5962    -7.6056    -3.4514 C.2     
  24 C24           -6.0458    -8.2786    -4.7226 C.3     
  25 C25           -4.8880    -9.0905    -5.3068 C.3     
  26 C26           -5.0630   -10.6080    -5.3947 C.3     
  27 C27           -5.1082    -9.7578    -6.6659 C.3     
  28 N28           -5.6751    -8.1031    -2.2433 N.2     
  29 N29           -5.2017    -7.2689    -1.3849 N.2     
  30 C30           -4.7894    -6.1782    -2.0122 C.2     
  31 C31           -4.1976    -4.9766    -1.5881 C.2     
  32 Cl32          -3.8674    -4.7001     0.0936 Cl      
  33 H33           -0.3271     1.6789     0.8163 H       
  34 H34            1.4061     2.9795    -4.9895 H       
  35 H35            0.5936     0.9467    -6.1144 H       
  36 H36           -1.9414    -0.0858    -1.3569 H       
  37 H37           -3.5727     0.3964    -3.1732 H       
  38 H38           -2.9241    -0.9738    -4.1071 H       
  39 H39           -4.2611    -1.1080    -1.3650 H       
  40 H40           -4.9249    -1.7135    -2.9044 H       
  41 H41           -2.0551    -2.4633    -0.4844 H       
  42 H42           -1.5395    -3.7934    -1.5531 H       
  43 H43           -0.9263    -2.2012    -3.3097 H       
  44 H44           -0.1205    -1.7246    -1.7952 H       
  45 H45           -3.9095    -3.5083    -4.6256 H       
  46 H46           -6.8824    -8.9428    -4.5058 H       
  47 H47           -6.3592    -7.5227    -5.4427 H       
  48 H48           -3.8901    -8.7105    -5.0885 H       
  49 H49           -4.1800   -11.2265    -5.2341 H       
  50 H50           -6.0029   -11.0278    -5.0363 H       
  51 H51           -6.0779    -9.6183    -7.1439 H       
  52 H52           -4.2550    -9.8170    -7.3417 H       
@<TRIPOS>BOND
   1    1    2 1
   2    2    3 1
   3    2    4 1
   4    2   33 1
   5    4    5 1
   6    5   12 ar
   7    5    6 ar
   8    6    7 1
   9    6    8 ar
  10    8    9 ar
  11    8   34 1
  12    9   10 ar
  13    9   35 1
  14   10   11 1
  15   10   12 ar
  16   12   13 1
  17   13   18 1
  18   13   14 1
  19   13   36 1
  20   14   15 1
  21   14   37 1
  22   14   38 1
  23   15   16 1
  24   15   39 1
  25   15   40 1
  26   16   17 1
  27   16   19 1
  28   17   18 1
  29   17   41 1
  30   17   42 1
  31   18   43 1
  32   18   44 1
  33   19   31 2
  34   19   20 1
  35   20   21 2
  36   20   45 1
  37   21   22 1
  38   22   30 1
  39   22   23 1
  40   23   24 1
  41   23   28 2
  42   24   25 1
  43   24   46 1
  44   24   47 1
  45   25   27 1
  46   25   26 1
  47   25   48 1
  48   26   27 1
  49   26   49 1
  50   26   50 1
  51   27   51 1
  52   27   52 1
  53   28   29 1
  54   29   30 2
  55   30   31 1
  56   31   32 1

#	End of record

