#	Name: ASD01148487
#	Creating user name:	WinNT
#	Creation time:	15. 06. 2019 19:02

#	Modifying user name:	WinNT
#	Modification time:	15. 06. 2019 19:02

#	Program:	/corina/corina34_cracker 3.40 0067  02.08.2006

@<TRIPOS>MOLECULE
ASD01148487
  52   54    0    0    0
SMALL
NO_CHARGES


@<TRIPOS>ATOM
   1 C1             0.3639     1.8423     0.0681 C.ar    
   2 C2             0.4625     0.4644    -0.0073 C.ar    
   3 C3            -0.6829    -0.3067    -0.0949 C.ar    
   4 C4            -1.9248     0.2998    -0.1071 C.ar    
   5 C5            -2.0226     1.6767    -0.0318 C.ar    
   6 C6            -0.8787     2.4474     0.0615 C.ar    
   7 C7            -3.3769     2.3375    -0.0456 C.3     
   8 O8            -4.3694     1.4933     0.5723 O.3     
   9 C9            -3.3977     3.5774     0.8798 C.3     
  10 C10           -3.9248     3.0074     2.1829 C.2     
  11 N11           -4.4450     1.8516     1.9379 N.2     
  12 C12           -3.8550     3.6618     3.5041 C.ar    
  13 C13           -4.3823     3.0224     4.6293 C.ar    
  14 C14           -3.2566     4.9179     3.6307 C.ar    
  15 C15           -3.1914     5.5282     4.8629 C.ar    
  16 C16           -3.7237     4.8915     5.9869 C.ar    
  17 C17           -4.3171     3.6325     5.8612 C.ar    
  18 C18           -3.6538     5.5464     7.3090 C.2     
  19 O19           -4.2129     5.0464     8.2651 O.2     
  20 N20           -2.9700     6.6986     7.4551 N.am    
  21 C21           -4.8917     2.9459     7.0734 C.3     
  22 C22           -3.7865     2.7106    -1.4718 C.3     
  23 F23           -3.8257     1.5572    -2.2626 F       
  24 F24           -5.0522     3.3062    -1.4528 F       
  25 F25           -2.8561     3.6096    -2.0041 F       
  26 Cl26           2.0227    -0.2967     0.0076 Cl      
  27 C27           -2.9062     7.2961     8.6614 C.2     
  28 O28           -2.2232     8.4468     8.8073 O.3     
  29 C29           -2.1971     9.0341    10.1349 C.3     
  30 O30           -3.4651     6.7963     9.6171 O.2     
  31 C31           -0.5764    -1.8077    -0.1774 C.3     
  32 F32           -1.8582    -2.3624    -0.2577 F       
  33 F33            0.1568    -2.1613    -1.3152 F       
  34 F34            0.0710    -2.2928     0.9639 F       
  35 C35            1.6110     2.6830     0.1634 C.3     
  36 F36            1.2581     4.0352     0.2277 F       
  37 F37            2.3233     2.3317     1.3152 F       
  38 F38            2.4094     2.4624    -0.9640 F       
  39 H39           -2.8189    -0.3020    -0.1758 H       
  40 H40           -0.9557     3.5230     0.1203 H       
  41 H41           -2.3929     3.9789     1.0114 H       
  42 H42           -4.0722     4.3399     0.4901 H       
  43 H43           -4.8412     2.0496     4.5321 H       
  44 H44           -2.8448     5.4099     2.7620 H       
  45 H45           -2.7285     6.4991     4.9609 H       
  46 H46           -2.5236     7.0977     6.6919 H       
  47 H47           -5.8994     3.3183     7.2584 H       
  48 H48           -4.9281     1.8706     6.8988 H       
  49 H49           -4.2634     3.1523     7.9398 H       
  50 H50           -3.2155     9.2554    10.4544 H       
  51 H51           -1.7415     8.3325    10.8337 H       
  52 H52           -1.6148     9.9552    10.1133 H       
@<TRIPOS>BOND
   1    1    2 ar
   2    1   35 1
   3    1    6 ar
   4    2    3 ar
   5    2   26 1
   6    3    4 ar
   7    3   31 1
   8    4    5 ar
   9    4   39 1
  10    5    6 ar
  11    5    7 1
  12    6   40 1
  13    7    8 1
  14    7    9 1
  15    7   22 1
  16    8   11 1
  17    9   10 1
  18    9   41 1
  19    9   42 1
  20   10   11 2
  21   10   12 1
  22   12   13 ar
  23   12   14 ar
  24   13   17 ar
  25   13   43 1
  26   14   15 ar
  27   14   44 1
  28   15   16 ar
  29   15   45 1
  30   16   17 ar
  31   16   18 1
  32   17   21 1
  33   18   19 2
  34   18   20 am
  35   20   27 am
  36   20   46 1
  37   21   47 1
  38   21   48 1
  39   21   49 1
  40   22   23 1
  41   22   24 1
  42   22   25 1
  43   27   28 1
  44   27   30 2
  45   28   29 1
  46   29   50 1
  47   29   51 1
  48   29   52 1
  49   31   32 1
  50   31   33 1
  51   31   34 1
  52   35   36 1
  53   35   37 1
  54   35   38 1

#	End of record

