#	Name: ASD01880911
#	Creating user name:	WinNT
#	Creation time:	15. 06. 2019 19:41

#	Modifying user name:	WinNT
#	Modification time:	15. 06. 2019 19:41

#	Program:	/corina/corina34_cracker 3.40 0067  02.08.2006

@<TRIPOS>MOLECULE
ASD01880911
  58   61    0    0    0
SMALL
NO_CHARGES


@<TRIPOS>ATOM
   1 N1            -0.0156     1.3135    -0.0033 N.ar    
   2 C2             0.0019    -0.0036     0.0108 C.ar    
   3 N3             1.1298    -0.6849     0.0095 N.ar    
   4 C4             2.3046    -0.0614    -0.0065 C.ar    
   5 C5             2.3315     1.3274    -0.0222 C.ar    
   6 C6             1.1184     2.0109    -0.0199 C.ar    
   7 C7             3.6399     2.0750    -0.0402 C.3     
   8 O8             4.0895     2.2159    -1.3893 O.3     
   9 C9             5.2623     2.8707    -1.5827 C.ar    
  10 C10            5.7578     3.0431    -2.8714 C.ar    
  11 C11            6.9441     3.7061    -3.0657 C.ar    
  12 C12            7.6598     4.2106    -1.9749 C.ar    
  13 C13            7.1575     4.0351    -0.6826 C.ar    
  14 C14            5.9645     3.3735    -0.4937 C.ar    
  15 C15            7.7417     4.0566    -4.2971 C.3     
  16 N16            8.9290     4.7778    -3.8246 N.am    
  17 C17            8.8777     4.8644    -2.4843 C.2     
  18 O18            9.7170     5.4058    -1.7910 O.2     
  19 C19            7.9179     4.5727     0.5022 C.3     
  20 N20            1.0918     3.3967    -0.0355 N.3     
  21 C21            0.5272     3.8759    -1.2290 C.3     
  22 C22            0.6678     5.4090    -1.3445 C.3     
  23 C23           -0.3313     6.0672    -0.4278 C.3     
  24 O24            0.2042     6.3354     0.8842 O.3     
  25 C25            1.0266     5.3019     1.4563 C.3     
  26 C26            0.4668     3.9276     1.1917 C.3     
  27 C27            9.6512     6.7498    -5.0782 C.3     
  28 C28            9.9951     5.3147    -4.6740 C.3     
  29 O29            3.4593    -0.7712    -0.0072 O.3     
  30 C30            3.3454    -2.1956     0.0100 C.3     
  31 H31           -0.9351    -0.5405     0.0240 H       
  32 H32            3.5006     3.0618     0.4013 H       
  33 H33            4.3826     1.5214     0.5344 H       
  34 H34            5.2101     2.6556    -3.7177 H       
  35 H35            5.5766     3.2384     0.5051 H       
  36 H36            8.0390     3.1487    -4.8219 H       
  37 H37            7.1529     4.6950    -4.9557 H       
  38 H38            7.5924     5.5918     0.7109 H       
  39 H39            7.7263     3.9447     1.3723 H       
  40 H40            8.9851     4.5704     0.2804 H       
  41 H41            1.0304     3.4071    -2.0747 H       
  42 H42           -0.5301     3.6121    -1.2541 H       
  43 H43            1.6766     5.7050    -1.0566 H       
  44 H44            0.4764     5.7160    -2.3727 H       
  45 H45           -0.6523     7.0079    -0.8753 H       
  46 H46           -1.1985     5.4147    -0.3267 H       
  47 H47            2.0267     5.3662     1.0275 H       
  48 H48            1.0932     5.4567     2.5332 H       
  49 H49           -0.6127     3.9919     1.0548 H       
  50 H50            0.6941     3.2715     2.0320 H       
  51 H51            8.7102     6.7567    -5.6282 H       
  52 H52            9.5540     7.3657    -4.1841 H       
  53 H53           10.4444     7.1492    -5.7101 H       
  54 H54           10.9361     5.3078    -4.1239 H       
  55 H55           10.0923     4.6988    -5.5680 H       
  56 H56            2.7974    -2.5269    -0.8721 H       
  57 H57            4.3407    -2.6398     0.0075 H       
  58 H58            2.8110    -2.5065     0.9077 H       
@<TRIPOS>BOND
   1    1    2 ar
   2    1    6 ar
   3    2    3 ar
   4    2   31 1
   5    3    4 ar
   6    4    5 ar
   7    4   29 1
   8    5    6 ar
   9    5    7 1
  10    6   20 1
  11    7    8 1
  12    7   32 1
  13    7   33 1
  14    8    9 1
  15    9   10 ar
  16    9   14 ar
  17   10   11 ar
  18   10   34 1
  19   11   12 ar
  20   11   15 1
  21   12   13 ar
  22   12   17 1
  23   13   14 ar
  24   13   19 1
  25   14   35 1
  26   15   16 1
  27   15   36 1
  28   15   37 1
  29   16   17 am
  30   16   28 1
  31   17   18 2
  32   19   38 1
  33   19   39 1
  34   19   40 1
  35   20   21 1
  36   20   26 1
  37   21   22 1
  38   21   41 1
  39   21   42 1
  40   22   23 1
  41   22   43 1
  42   22   44 1
  43   23   24 1
  44   23   45 1
  45   23   46 1
  46   24   25 1
  47   25   26 1
  48   25   47 1
  49   25   48 1
  50   26   49 1
  51   26   50 1
  52   27   28 1
  53   27   51 1
  54   27   52 1
  55   27   53 1
  56   28   54 1
  57   28   55 1
  58   29   30 1
  59   30   56 1
  60   30   57 1
  61   30   58 1

#	End of record

