#	Name: ASD08150353
#	Creating user name:	WinNT
#	Creation time:	15. 06. 2019 21:15

#	Modifying user name:	WinNT
#	Modification time:	15. 06. 2019 21:15

#	Program:	/corina/corina34_cracker 3.40 0067  02.08.2006

@<TRIPOS>MOLECULE
ASD08150353
  75   81    0    0    0
SMALL
NO_CHARGES


@<TRIPOS>ATOM
   1 N1             0.1031     1.5616    -0.0633 N.am    
   2 C2             0.6479     1.0828     1.0720 C.2     
   3 C3             1.8808     0.3996     1.0509 C.2     
   4 C4             2.5391     0.2141    -0.1216 C.2     
   5 C5             1.9690     0.7165    -1.3181 C.ar    
   6 C6             2.6102     0.5508    -2.5607 C.ar    
   7 N7             2.0820     1.0152    -3.6627 N.ar    
   8 C8             0.9107     1.6696    -3.6768 C.ar    
   9 C9             0.1956     1.8818    -2.4725 C.ar    
  10 C10            0.7403     1.3920    -1.2625 C.ar    
  11 C11           -1.0239     2.5659    -2.4980 C.ar    
  12 C12           -1.5205     3.0298    -3.7045 C.ar    
  13 C13           -0.8078     2.8159    -4.8920 C.ar    
  14 C14            0.3796     2.1524    -4.8839 C.ar    
  15 O15            0.0672     1.2429     2.1319 O.2     
  16 C16           -2.8142     3.7569    -3.7402 C.2     
  17 C17           -1.1236     2.2307    -0.0168 C.ar    
  18 C18           -1.1551     3.6200     0.0292 C.ar    
  19 C19           -2.3628     4.2819     0.0751 C.ar    
  20 C20           -3.5547     3.5568     0.0753 C.ar    
  21 C21           -3.5204     2.1633     0.0290 C.ar    
  22 C22           -2.3098     1.5062    -0.0224 C.ar    
  23 C23           -4.8549     4.2661     0.1250 C.ar    
  24 C24           -3.7177     3.9016    -2.6692 C.2     
  25 C25           -5.1260     5.1530     1.1677 C.ar    
  26 C26           -6.3331     5.8126     1.2145 C.ar    
  27 C27           -7.2874     5.5938     0.2175 C.ar    
  28 C28           -7.0150     4.7055    -0.8261 C.ar    
  29 C29           -5.8052     4.0509    -0.8741 C.ar    
  30 C30           -8.5832     6.3006     0.2671 C.2     
  31 O31           -8.8199     7.0731     1.1755 O.2     
  32 N32           -9.5033     6.0893    -0.6948 N.am    
  33 C33          -10.7887     6.7904    -0.6456 C.3     
  34 C34          -11.3693     6.8942    -2.0586 C.3     
  35 C35          -12.7394     7.5730    -1.9933 C.3     
  36 N36          -13.6349     6.7890    -1.1332 N.3     
  37 C37          -13.1216     6.7155     0.2407 C.3     
  38 C38          -11.7630     6.0112     0.2421 C.3     
  39 C39          -14.9987     7.3345    -1.1572 C.3     
  40 N40           -4.7363     4.6039    -3.0895 N.2     
  41 N41           -4.5257     4.9329    -4.4340 N.pl3   
  42 C42           -3.3418     4.4117    -4.8149 C.2     
  43 C43           -4.8060     1.3769     0.0296 C.3     
  44 F44           -4.5176     0.0119     0.1336 F       
  45 F45           -5.5935     1.7714     1.1165 F       
  46 F46           -5.5003     1.6174    -1.1609 F       
  47 H47            2.3031     0.0227     1.9707 H       
  48 H48            3.4841    -0.3084    -0.1424 H       
  49 H49            3.5559     0.0309    -2.6041 H       
  50 H50           -1.5745     2.7308    -1.5836 H       
  51 H51           -1.2068     3.1824    -5.8262 H       
  52 H52            0.9156     1.9967    -5.8085 H       
  53 H53           -0.2321     4.1809     0.0294 H       
  54 H54           -2.3867     5.3610     0.1112 H       
  55 H55           -2.2829     0.4273    -0.0631 H       
  56 H56           -3.5907     3.5014    -1.6742 H       
  57 H57           -4.3884     5.3217     1.9384 H       
  58 H58           -6.5428     6.4987     2.0218 H       
  59 H59           -7.7521     4.5355    -1.5970 H       
  60 H60           -5.5945     3.3643    -1.6806 H       
  61 H61           -9.3144     5.4729    -1.4196 H       
  62 H62          -10.6427     7.7905    -0.2374 H       
  63 H63          -10.7002     7.4846    -2.6846 H       
  64 H64          -11.4777     5.8956    -2.4818 H       
  65 H65          -12.6282     8.5766    -1.5830 H       
  66 H66          -13.1618     7.6355    -2.9962 H       
  67 H67          -13.0087     7.7232     0.6406 H       
  68 H68          -13.8218     6.1553     0.8605 H       
  69 H69          -11.8776     4.9986    -0.1448 H       
  70 H70          -11.3751     5.9707     1.2599 H       
  71 H71          -15.3825     7.3085    -2.1770 H       
  72 H72          -15.6411     6.7353    -0.5119 H       
  73 H73          -14.9844     8.3644    -0.8004 H       
  74 H74           -5.1258     5.4501    -4.9937 H       
  75 H75           -2.8956     4.4916    -5.7952 H       
@<TRIPOS>BOND
   1    1    2 am
   2    1   10 1
   3    1   17 1
   4    2    3 1
   5    2   15 2
   6    3    4 2
   7    3   47 1
   8    4    5 1
   9    4   48 1
  10    5    6 ar
  11    5   10 ar
  12    6    7 ar
  13    6   49 1
  14    7    8 ar
  15    8    9 ar
  16    8   14 ar
  17    9   10 ar
  18    9   11 ar
  19   11   12 ar
  20   11   50 1
  21   12   13 ar
  22   12   16 1
  23   13   14 ar
  24   13   51 1
  25   14   52 1
  26   16   24 1
  27   16   42 2
  28   17   18 ar
  29   17   22 ar
  30   18   19 ar
  31   18   53 1
  32   19   20 ar
  33   19   54 1
  34   20   21 ar
  35   20   23 1
  36   21   22 ar
  37   21   43 1
  38   22   55 1
  39   23   25 ar
  40   23   29 ar
  41   24   40 2
  42   24   56 1
  43   25   26 ar
  44   25   57 1
  45   26   27 ar
  46   26   58 1
  47   27   28 ar
  48   27   30 1
  49   28   29 ar
  50   28   59 1
  51   29   60 1
  52   30   31 2
  53   30   32 am
  54   32   33 1
  55   32   61 1
  56   33   34 1
  57   33   38 1
  58   33   62 1
  59   34   35 1
  60   34   63 1
  61   34   64 1
  62   35   36 1
  63   35   65 1
  64   35   66 1
  65   36   37 1
  66   36   39 1
  67   37   38 1
  68   37   67 1
  69   37   68 1
  70   38   69 1
  71   38   70 1
  72   39   71 1
  73   39   72 1
  74   39   73 1
  75   40   41 1
  76   41   42 1
  77   41   74 1
  78   42   75 1
  79   43   44 1
  80   43   45 1
  81   43   46 1

#	End of record

