#	Name: ASD02198673
#	Creating user name:	WinNT
#	Creation time:	15. 06. 2019 20:19

#	Modifying user name:	WinNT
#	Modification time:	15. 06. 2019 20:19

#	Program:	/corina/corina34_cracker 3.40 0067  02.08.2006

@<TRIPOS>MOLECULE
ASD02198673
  57   61    0    0    0
SMALL
NO_CHARGES


@<TRIPOS>ATOM
   1 C1            -0.0435     1.5030    -0.1142 C.2     
   2 C2            -0.0736     0.1634     0.0984 C.2     
   3 N3             1.0708    -0.5386     0.2607 N.pl3   
   4 N4             2.2355    -0.0041     0.2264 N.2     
   5 C5             2.4073     1.2852     0.0280 C.2     
   6 C6             1.2215     2.1367    -0.1600 C.2     
   7 C7             0.9791    -1.9164     0.4772 C.ar    
   8 C8             1.5817    -2.4874     1.5982 C.ar    
   9 C9             1.4901    -3.8511     1.8120 C.ar    
  10 C10            0.7957    -4.6510     0.9063 C.ar    
  11 C11            0.1949    -4.0754    -0.2130 C.ar    
  12 C12            0.2829    -2.7155    -0.4214 C.ar    
  13 C13            3.7644     1.8670    -0.0054 C.2     
  14 N14            4.3060     2.6068    -1.0188 N.pl3   
  15 N15            5.6083     2.9576    -0.6420 N.2     
  16 C16            5.8528     2.4579     0.5431 C.2     
  17 C17            4.7206     1.7712     0.9818 C.2     
  18 C18            3.6723     2.9519    -2.2193 C.ar    
  19 C19            2.9091     2.0116    -2.8984 C.ar    
  20 C20            2.2850     2.3551    -4.0819 C.ar    
  21 C21            2.4201     3.6336    -4.5906 C.ar    
  22 C22            3.1800     4.5724    -3.9167 C.ar    
  23 C23            3.8013     4.2370    -2.7300 C.ar    
  24 O24            1.3248     3.3397    -0.3480 O.2     
  25 C25            0.6961    -6.1131     1.1324 C.ar    
  26 N26            1.2703    -6.6547     2.1992 N.ar    
  27 C27           -0.0046    -6.9063     0.2261 C.ar    
  28 C28           -0.0893    -8.2695     0.4507 C.ar    
  29 C29            0.5301    -8.7953     1.5756 C.ar    
  30 C30            1.2047    -7.9489     2.4364 C.ar    
  31 O31            2.2586    -1.7047     2.4794 O.3     
  32 C32            2.8505    -2.3569     3.6047 C.3     
  33 C33            7.1420     2.6055     1.3095 C.3     
  34 C34            3.3254     5.9645    -4.4753 C.3     
  35 F35            2.6072     6.0643    -5.6717 F       
  36 F36            2.8268     6.8913    -3.5534 F       
  37 F37            4.6770     6.2303    -4.7192 F       
  38 H38           -0.9548     2.0668    -0.2487 H       
  39 H39           -1.0235    -0.3488     0.1389 H       
  40 H40            1.9562    -4.2952     2.6791 H       
  41 H41           -0.3433    -4.6950    -0.9150 H       
  42 H42           -0.1830    -2.2717    -1.2888 H       
  43 H43            4.6151     1.2520     1.9229 H       
  44 H44            2.8037     1.0125    -2.5020 H       
  45 H45            1.6912     1.6241    -4.6106 H       
  46 H46            1.9314     3.8997    -5.5162 H       
  47 H47            4.3943     4.9706    -2.2041 H       
  48 H48           -0.4752    -6.4636    -0.6393 H       
  49 H49           -0.6258    -8.9096    -0.2340 H       
  50 H50            0.4821    -9.8548     1.7792 H       
  51 H51            1.6881    -8.3550     3.3126 H       
  52 H52            2.0736    -2.8508     4.1884 H       
  53 H53            3.5707    -3.0979     3.2578 H       
  54 H54            3.3585    -1.6196     4.2262 H       
  55 H55            7.0950     3.4999     1.9306 H       
  56 H56            7.2904     1.7308     1.9427 H       
  57 H57            7.9729     2.6924     0.6094 H       
@<TRIPOS>BOND
   1    1    2 2
   2    1    6 1
   3    1   38 1
   4    2    3 1
   5    2   39 1
   6    3    4 1
   7    3    7 1
   8    4    5 2
   9    5    6 1
  10    5   13 1
  11    6   24 2
  12    7    8 ar
  13    7   12 ar
  14    8    9 ar
  15    8   31 1
  16    9   10 ar
  17    9   40 1
  18   10   11 ar
  19   10   25 1
  20   11   12 ar
  21   11   41 1
  22   12   42 1
  23   13   14 1
  24   13   17 2
  25   14   15 1
  26   14   18 1
  27   15   16 2
  28   16   17 1
  29   16   33 1
  30   17   43 1
  31   18   19 ar
  32   18   23 ar
  33   19   20 ar
  34   19   44 1
  35   20   21 ar
  36   20   45 1
  37   21   22 ar
  38   21   46 1
  39   22   23 ar
  40   22   34 1
  41   23   47 1
  42   25   26 ar
  43   25   27 ar
  44   26   30 ar
  45   27   28 ar
  46   27   48 1
  47   28   29 ar
  48   28   49 1
  49   29   30 ar
  50   29   50 1
  51   30   51 1
  52   31   32 1
  53   32   52 1
  54   32   53 1
  55   32   54 1
  56   33   55 1
  57   33   56 1
  58   33   57 1
  59   34   35 1
  60   34   36 1
  61   34   37 1

#	End of record

