#	Name: ASD01948203
#	Creating user name:	WinNT
#	Creation time:	15. 06. 2019 20:13

#	Modifying user name:	WinNT
#	Modification time:	15. 06. 2019 20:13

#	Program:	/corina/corina34_cracker 3.40 0067  02.08.2006

@<TRIPOS>MOLECULE
ASD01948203
  32   34    0    0    0
SMALL
NO_CHARGES


@<TRIPOS>ATOM
   1 C1             0.1164     1.1108    -0.3563 C.ar    
   2 C2             0.1670    -0.2386    -0.1117 C.ar    
   3 C3             1.3531    -0.8410     0.3228 C.ar    
   4 C4             2.4942    -0.0650     0.5096 C.ar    
   5 C5             2.4515     1.3012     0.2646 C.ar    
   6 C6             1.2580     1.8976    -0.1715 C.ar    
   7 C7            -0.8589    -1.3407    -0.2111 C.3     
   8 N8            -0.1769    -2.5759     0.1901 N.am    
   9 C9             1.0989    -2.2870     0.4979 C.2     
  10 C10            2.7669     2.7804     2.6090 C.ar    
  11 C11            3.7290     2.8457     1.6106 C.ar    
  12 N12            3.5887     2.0767     0.4505 N.pl3   
  13 C13            2.9077     3.5414     3.7538 C.ar    
  14 C14            4.0055     4.3685     3.9063 C.ar    
  15 C15            4.9676     4.4367     2.9140 C.ar    
  16 C16            4.8330     3.6781     1.7662 C.ar    
  17 F17            5.7721     3.7445     0.7973 F       
  18 I18            4.2125     5.5208     5.6436 I       
  19 O19            1.9252    -3.0979     0.8672 O.2     
  20 C20            1.2077     3.3482    -0.4328 C.2     
  21 O21            2.2234     4.0122    -0.3714 O.2     
  22 O22            0.0353     3.9372    -0.7398 O.3     
  23 H23           -0.8032     1.5643    -0.6956 H       
  24 H24            3.4117    -0.5253     0.8452 H       
  25 H25           -1.6925    -1.1379     0.4613 H       
  26 H26           -1.2172    -1.4271    -1.2369 H       
  27 H27           -0.5807    -3.4571     0.2268 H       
  28 H28            1.9066     2.1386     2.4893 H       
  29 H29            4.2856     2.0851    -0.2241 H       
  30 H30            2.1590     3.4905     4.5305 H       
  31 H31            5.8238     5.0835     3.0360 H       
  32 H32            0.0521     4.8903    -0.9028 H       
@<TRIPOS>BOND
   1    1    2 ar
   2    1    6 ar
   3    1   23 1
   4    2    3 ar
   5    2    7 1
   6    3    4 ar
   7    3    9 1
   8    4    5 ar
   9    4   24 1
  10    5    6 ar
  11    5   12 1
  12    6   20 1
  13    7    8 1
  14    7   25 1
  15    7   26 1
  16    8    9 am
  17    8   27 1
  18    9   19 2
  19   10   11 ar
  20   10   13 ar
  21   10   28 1
  22   11   12 1
  23   11   16 ar
  24   12   29 1
  25   13   14 ar
  26   13   30 1
  27   14   15 ar
  28   14   18 1
  29   15   16 ar
  30   15   31 1
  31   16   17 1
  32   20   21 2
  33   20   22 1
  34   22   32 1

#	End of record

