#	Name: ASD08710132
#	Creating user name:	WinNT
#	Creation time:	15. 06. 2019 21:19

#	Modifying user name:	WinNT
#	Modification time:	15. 06. 2019 21:19

#	Program:	/corina/corina34_cracker 3.40 0067  02.08.2006

@<TRIPOS>MOLECULE
ASD08710132
  30   31    0    0    0
SMALL
NO_CHARGES


@<TRIPOS>ATOM
   1 N1            -0.0174     1.4728    -0.0667 N.am    
   2 C2             0.0110     0.0023    -0.0608 C.3     
   3 C3             0.8357    -0.4735    -1.2615 C.3     
   4 N4             2.1543     0.1734    -1.2330 N.3     
   5 C5             2.0359     1.6310    -1.3714 C.3     
   6 C6             1.2604     2.1930    -0.1752 C.3     
   7 C7            -1.1838     2.1425     0.0194 C.2     
   8 O8            -2.2364     1.5350    -0.0013 O.2     
   9 C9            -0.2259     4.2640     0.9210 C.ar    
  10 C10           -1.1831     3.6161     0.1390 C.ar    
  11 C11           -2.1421     4.3850    -0.5307 C.ar    
  12 C12           -2.0975     5.7607    -0.3861 C.ar    
  13 C13           -1.1163     6.3265     0.4077 C.ar    
  14 N14           -0.2248     5.5764     1.0273 N.ar    
  15 C15           -1.0644     7.8241     0.5676 C.3     
  16 H16            0.4704    -0.3514     0.8622 H       
  17 H17           -1.0054    -0.3838    -0.1386 H       
  18 H18            0.9600    -1.5552    -1.2117 H       
  19 H19            0.3204    -0.2083    -2.1847 H       
  20 H20            2.6585    -0.0704    -0.3937 H       
  21 H21            3.0307     2.0755    -1.4012 H       
  22 H22            1.5039     1.8669    -2.2930 H       
  23 H23            1.0701     3.2553    -0.3286 H       
  24 H24            1.8399     2.0499     0.7368 H       
  25 H25            0.5177     3.6837     1.4472 H       
  26 H26           -2.8973     3.9168    -1.1447 H       
  27 H27           -2.8210     6.3859    -0.8882 H       
  28 H28           -1.6738     8.1196     1.4216 H       
  29 H29           -0.0331     8.1364     0.7317 H       
  30 H30           -1.4487     8.2993    -0.3349 H       
@<TRIPOS>BOND
   1    1    2 1
   2    1    6 1
   3    1    7 am
   4    2    3 1
   5    2   16 1
   6    2   17 1
   7    3    4 1
   8    3   18 1
   9    3   19 1
  10    4    5 1
  11    4   20 1
  12    5    6 1
  13    5   21 1
  14    5   22 1
  15    6   23 1
  16    6   24 1
  17    7    8 2
  18    7   10 1
  19    9   10 ar
  20    9   14 ar
  21    9   25 1
  22   10   11 ar
  23   11   12 ar
  24   11   26 1
  25   12   13 ar
  26   12   27 1
  27   13   14 ar
  28   13   15 1
  29   15   28 1
  30   15   29 1
  31   15   30 1

#	End of record

