#	Name: ASD03092286
#	Creating user name:	WinNT
#	Creation time:	15. 06. 2019 20:32

#	Modifying user name:	WinNT
#	Modification time:	15. 06. 2019 20:32

#	Program:	/corina/corina34_cracker 3.40 0067  02.08.2006

@<TRIPOS>MOLECULE
ASD03092286
  30   31    0    0    0
SMALL
NO_CHARGES


@<TRIPOS>ATOM
   1 C1            -0.0167     1.3777     0.0096 C.ar    
   2 C2             0.0021    -0.0041     0.0020 C.ar    
   3 C3             1.2085    -0.6793    -0.0131 C.ar    
   4 C4             2.3965     0.0272    -0.0202 C.ar    
   5 C5             2.3790     1.4094    -0.0122 C.ar    
   6 C6             1.1723     2.0855     0.0021 C.ar    
   7 Cl7            1.1496     3.8214     0.0116 Cl      
   8 C8             3.6744     2.1796    -0.0189 C.3     
   9 C9             3.7588     3.0557     1.2354 C.3     
  10 C10            5.0051     3.9388     1.1555 C.3     
  11 C11            4.8874     4.8958    -0.0319 C.3     
  12 C12            4.8455     4.0888    -1.3339 C.3     
  13 C13            3.7261     3.0761    -1.2362 C.2     
  14 O14            2.8953     2.9854    -2.1078 O.2     
  15 O15            6.0903     3.4120    -1.5193 O.3     
  16 N16            4.8054     1.2424    -0.0432 N.3     
  17 H17           -0.9591     1.9050     0.0170 H       
  18 H18           -0.9258    -0.5566     0.0083 H       
  19 H19            1.2227    -1.7592    -0.0191 H       
  20 H20            3.3386    -0.5008    -0.0317 H       
  21 H21            2.8710     3.6849     1.2997 H       
  22 H22            3.8193     2.4205     2.1191 H       
  23 H23            5.1012     4.5140     2.0763 H       
  24 H24            5.8867     3.3105     1.0284 H       
  25 H25            3.9729     5.4814     0.0624 H       
  26 H26            5.7479     5.5647    -0.0464 H       
  27 H27            4.6610     4.7585    -2.1739 H       
  28 H28            6.1329     2.8810    -2.3264 H       
  29 H29            4.7735     0.6584    -0.8653 H       
  30 H30            5.6841     1.7346     0.0169 H       
@<TRIPOS>BOND
   1    1    2 ar
   2    1    6 ar
   3    1   17 1
   4    2    3 ar
   5    2   18 1
   6    3    4 ar
   7    3   19 1
   8    4    5 ar
   9    4   20 1
  10    5    6 ar
  11    5    8 1
  12    6    7 1
  13    8    9 1
  14    8   16 1
  15    8   13 1
  16    9   10 1
  17    9   21 1
  18    9   22 1
  19   10   11 1
  20   10   23 1
  21   10   24 1
  22   11   12 1
  23   11   25 1
  24   11   26 1
  25   12   13 1
  26   12   15 1
  27   12   27 1
  28   13   14 2
  29   15   28 1
  30   16   29 1
  31   16   30 1

#	End of record

