#	Name: ASD05720220
#	Creating user name:	WinNT
#	Creation time:	15. 06. 2019 21:02

#	Modifying user name:	WinNT
#	Modification time:	15. 06. 2019 21:02

#	Program:	/corina/corina34_cracker 3.40 0067  02.08.2006

@<TRIPOS>MOLECULE
ASD05720220
  43   44    0    0    0
SMALL
NO_CHARGES


@<TRIPOS>ATOM
   1 C1            -0.0178     1.4648     0.0101 C.3     
   2 C2             1.4175     1.9944    -0.0008 C.3     
   3 C3             1.3975     3.5197    -0.1181 C.3     
   4 C4             0.6440     4.1131     1.0740 C.3     
   5 N5             0.0021    -0.0041     0.0020 N.3     
   6 N6             2.1390     1.4262    -1.1422 N.pl3   
   7 C7             2.8329     4.0493    -0.1290 C.3     
   8 C8            -1.3620    -0.5491     0.0121 C.3     
   9 C9            -1.3005    -2.0779     0.0033 C.3     
  10 O10           -0.7008    -2.5374     1.2162 O.3     
  11 C11           -0.5948    -3.9594     1.3099 C.3     
  12 C12            5.5181     1.6190     0.0160 C.2     
  13 N13            4.1822     1.7203    -0.0379 N.2     
  14 C14            3.5184     1.3147    -1.1032 C.2     
  15 C15            4.2125     0.7668    -2.2033 C.2     
  16 C16            5.5588     0.6628    -2.1531 C.2     
  17 N17            6.2213     1.0912    -1.0360 N.pl3   
  18 N18            7.5784     1.1145    -0.6938 N.2     
  19 C19            7.7044     1.6303     0.5078 C.2     
  20 C20            6.4464     1.9654     0.9890 C.2     
  21 Br21           6.0652     2.7492     2.6671 Br      
  22 H22           -0.5280     1.8163     0.9069 H       
  23 H23           -0.5450     1.8259    -0.8730 H       
  24 H24            1.9176     1.7077     0.9244 H       
  25 H25            0.8974     3.8064    -1.0432 H       
  26 H26            1.1440     3.8264     1.9991 H       
  27 H27            0.6297     5.1998     0.9904 H       
  28 H28           -0.3786     3.7358     1.0817 H       
  29 H29            0.5256    -0.3543    -0.7863 H       
  30 H30            1.6503     1.1281    -1.9253 H       
  31 H31            3.3697     3.6266    -0.9782 H       
  32 H32            2.8186     5.1360    -0.2126 H       
  33 H33            3.3329     3.7626     0.7961 H       
  34 H34           -1.8815    -0.2116     0.9089 H       
  35 H35           -1.8985    -0.2020    -0.8709 H       
  36 H36           -2.3096    -2.4817    -0.0788 H       
  37 H37           -0.7050    -2.4126    -0.8460 H       
  38 H38           -0.1297    -4.2274     2.2585 H       
  39 H39           -1.5893    -4.4022     1.2549 H       
  40 H40            0.0153    -4.3332     0.4876 H       
  41 H41            3.6725     0.4333    -3.0770 H       
  42 H42            6.1056     0.2456    -2.9858 H       
  43 H43            8.6363     1.7739     1.0344 H       
@<TRIPOS>BOND
   1    1    5 1
   2    1    2 1
   3    1   22 1
   4    1   23 1
   5    2    3 1
   6    2    6 1
   7    2   24 1
   8    3    4 1
   9    3    7 1
  10    3   25 1
  11    4   26 1
  12    4   27 1
  13    4   28 1
  14    5    8 1
  15    5   29 1
  16    6   14 1
  17    6   30 1
  18    7   31 1
  19    7   32 1
  20    7   33 1
  21    8    9 1
  22    8   34 1
  23    8   35 1
  24    9   10 1
  25    9   36 1
  26    9   37 1
  27   10   11 1
  28   11   38 1
  29   11   39 1
  30   11   40 1
  31   12   13 1
  32   12   17 1
  33   12   20 2
  34   13   14 2
  35   14   15 1
  36   15   16 2
  37   15   41 1
  38   16   17 1
  39   16   42 1
  40   17   18 1
  41   18   19 2
  42   19   20 1
  43   19   43 1
  44   20   21 1

#	End of record

