#	Name: ASD01230812
#	Creating user name:	WinNT
#	Creation time:	15. 06. 2019 19:15

#	Modifying user name:	WinNT
#	Modification time:	15. 06. 2019 19:15

#	Program:	/corina/corina34_cracker 3.40 0067  02.08.2006

@<TRIPOS>MOLECULE
ASD01230812
  36   39    0    0    0
SMALL
NO_CHARGES


@<TRIPOS>ATOM
   1 C1            -0.0166     1.3741     0.0096 C.2     
   2 C2             0.0021    -0.0041     0.0020 C.2     
   3 C3            -1.2145    -0.7001     0.0078 C.2     
   4 C4            -2.3849    -0.0392     0.0095 C.2     
   5 N5            -2.4624     1.3315     0.0002 N.pl3   
   6 C6            -1.3177     2.0762     0.0320 C.2     
   7 C7            -3.8100     1.9046    -0.0504 C.3     
   8 C8            -3.8788     3.1901     0.7791 C.3     
   9 S9            -2.6224     4.3264     0.1118 S.o2    
  10 N10           -1.2623     3.3850     0.0819 N.am    
  11 C11            1.2493     2.1411     0.0016 C.ar    
  12 O12           -2.8867     4.6259    -1.2519 O.2     
  13 O13           -2.3221     5.3522     1.0482 O.2     
  14 C14            1.5607     2.9488    -1.1095 C.ar    
  15 C15            2.7041     3.6697    -1.1660 C.ar    
  16 C16            3.6207     3.6231    -0.0917 C.ar    
  17 C17            3.3062     2.7828     1.0746 C.ar    
  18 C18            2.0989     2.0559     1.0850 C.ar    
  19 N19            4.7881     4.1905     0.1519 N.2     
  20 N20            5.2475     3.7684     1.4045 N.pl3   
  21 C21            4.3623     2.9269     1.9568 C.2     
  22 C22            6.5099     4.1841     2.0208 C.3     
  23 H23            0.9399    -0.5395    -0.0086 H       
  24 H24           -1.2115    -1.7801     0.0105 H       
  25 H25           -3.3018    -0.6097     0.0181 H       
  26 H26           -4.0660     2.1305    -1.0856 H       
  27 H27           -4.5232     1.1821     0.3463 H       
  28 H28           -4.8688     3.6372     0.6898 H       
  29 H29           -3.6625     2.9697     1.8244 H       
  30 H30            0.8691     2.9934    -1.9378 H       
  31 H31            2.9163     4.2799    -2.0314 H       
  32 H32            1.8452     1.4320     1.9293 H       
  33 H33            4.4565     2.4468     2.9196 H       
  34 H34            6.3449     5.0815     2.6171 H       
  35 H35            6.8816     3.3850     2.6622 H       
  36 H36            7.2424     4.3951     1.2417 H       
@<TRIPOS>BOND
   1    1    2 2
   2    1   11 1
   3    1    6 1
   4    2    3 1
   5    2   23 1
   6    3    4 2
   7    3   24 1
   8    4    5 1
   9    4   25 1
  10    5    6 1
  11    5    7 1
  12    6   10 2
  13    7    8 1
  14    7   26 1
  15    7   27 1
  16    8    9 1
  17    8   28 1
  18    8   29 1
  19    9   10 am
  20    9   12 2
  21    9   13 2
  22   11   14 ar
  23   11   18 ar
  24   14   15 ar
  25   14   30 1
  26   15   16 ar
  27   15   31 1
  28   16   17 ar
  29   16   19 2
  30   17   18 ar
  31   17   21 2
  32   18   32 1
  33   19   20 1
  34   20   21 1
  35   20   22 1
  36   21   33 1
  37   22   34 1
  38   22   35 1
  39   22   36 1

#	End of record

