#	Name: ASD04480003
#	Creating user name:	WinNT
#	Creation time:	15. 06. 2019 20:49

#	Modifying user name:	WinNT
#	Modification time:	15. 06. 2019 20:49

#	Program:	/corina/corina34_cracker 3.40 0067  02.08.2006

@<TRIPOS>MOLECULE
ASD04480003
  66   68    0    0    0
SMALL
NO_CHARGES


@<TRIPOS>ATOM
   1 C1            -0.0163     1.3531     0.0095 C.ar    
   2 N2             2.3462     4.1646     0.0030 N.pl3   
   3 O3             0.0021    -0.0041     0.0020 O.3     
   4 S4             5.2328     8.0403     1.3626 S.o2    
   5 C5             1.1710     2.0630     0.0020 C.ar    
   6 N6             3.8192     7.4730     0.7127 N.am    
   7 O7             4.4625     5.3667     0.9801 O.2     
   8 C8             1.1499     3.4521     0.0101 C.ar    
   9 N9             8.8547     4.7630    -0.2327 N.pl3   
  10 O10            5.1589     9.4583     1.3079 O.2     
  11 C11            2.3265     5.6294     0.0116 C.3     
  12 N12           -2.4966    -0.0162     0.0127 N.2     
  13 O13            5.4376     7.3187     2.5695 O.2     
  14 C14            3.6129     6.1457     0.6030 C.2     
  15 N15           -3.7107     1.9654     0.0298 N.pl3   
  16 O16            1.1527     9.1604    -3.1519 O.3     
  17 C17            6.5344     7.5674     0.2732 C.ar    
  18 O18            2.6872     4.9759    -4.8119 O.3     
  19 C19            6.9110     8.4075    -0.7584 C.ar    
  20 C20            7.9322     8.0402    -1.6158 C.ar    
  21 C21            8.5789     6.8323    -1.4443 C.ar    
  22 C22            8.2030     5.9858    -0.4088 C.ar    
  23 C23            7.1812     6.3605     0.4542 C.ar    
  24 C24            2.1826     6.1382    -1.3996 C.ar    
  25 C25            1.7308     7.4252    -1.6270 C.ar    
  26 C26            1.5977     7.8955    -2.9278 C.ar    
  27 C27            1.0404     9.5769    -4.5142 C.3     
  28 C28            0.5282    11.0176    -4.5665 C.3     
  29 C29            1.9186     7.0737    -3.9963 C.ar    
  30 C30            2.3719     5.7837    -3.7650 C.ar    
  31 C31            2.5277     5.5212    -6.1231 C.3     
  32 C32            2.9284     4.4734    -7.1635 C.3     
  33 C33            2.5080     5.3195    -2.4652 C.ar    
  34 C34           -0.0640     4.1340     0.0259 C.ar    
  35 C35           -1.2503     3.4359     0.0335 C.ar    
  36 C36           -1.2386     2.0395     0.0190 C.ar    
  37 C37           -2.5098     1.2883     0.0204 C.2     
  38 F38            1.4183     8.2254    -0.5843 F       
  39 H39            3.1927     3.6910    -0.0077 H       
  40 H40            0.0158    -0.4021     0.8832 H       
  41 H41            2.1144     1.5374    -0.0099 H       
  42 H42            3.1397     8.0960     0.4111 H       
  43 H43            9.5707     4.5041    -0.8337 H       
  44 H44            8.5914     4.1728     0.4907 H       
  45 H45            1.4854     5.9780     0.6110 H       
  46 H46           -3.3316    -0.5097     0.0137 H       
  47 H47           -4.5457     1.4719     0.0307 H       
  48 H48           -3.7205     2.9354     0.0354 H       
  49 H49            6.4063     9.3525    -0.8952 H       
  50 H50            8.2239     8.6987    -2.4206 H       
  51 H51            9.3757     6.5458    -2.1146 H       
  52 H52            6.8897     5.7069     1.2630 H       
  53 H53            2.0181     9.5213    -4.9929 H       
  54 H54            0.3421     8.9237    -5.0375 H       
  55 H55            1.2266    11.6708    -4.0433 H       
  56 H56            0.4425    11.3353    -5.6057 H       
  57 H57           -0.4495    11.0732    -4.0879 H       
  58 H58            1.8155     7.4373    -5.0081 H       
  59 H59            1.4860     5.8040    -6.2748 H       
  60 H60            3.1623     6.4009    -6.2305 H       
  61 H61            2.2938     3.5937    -7.0562 H       
  62 H62            2.8067     4.8893    -8.1636 H       
  63 H63            3.9701     4.1906    -7.0118 H       
  64 H64            2.8646     4.3161    -2.2852 H       
  65 H65           -0.0749     5.2140     0.0325 H       
  66 H66           -2.1900     3.9680     0.0461 H       
@<TRIPOS>BOND
   1    1    3 1
   2    1    5 ar
   3    1   36 ar
   4    2    8 1
   5    2   11 1
   6    2   39 1
   7    3   40 1
   8    4    6 am
   9    4   10 2
  10    4   13 2
  11    4   17 1
  12    5    8 ar
  13    5   41 1
  14    6   14 am
  15    6   42 1
  16    7   14 2
  17    8   34 ar
  18    9   22 1
  19    9   43 1
  20    9   44 1
  21   11   14 1
  22   11   24 1
  23   11   45 1
  24   12   37 2
  25   12   46 1
  26   15   37 1
  27   15   47 1
  28   15   48 1
  29   16   26 1
  30   16   27 1
  31   17   19 ar
  32   17   23 ar
  33   18   30 1
  34   18   31 1
  35   19   20 ar
  36   19   49 1
  37   20   21 ar
  38   20   50 1
  39   21   22 ar
  40   21   51 1
  41   22   23 ar
  42   23   52 1
  43   24   25 ar
  44   24   33 ar
  45   25   26 ar
  46   25   38 1
  47   26   29 ar
  48   27   28 1
  49   27   53 1
  50   27   54 1
  51   28   55 1
  52   28   56 1
  53   28   57 1
  54   29   30 ar
  55   29   58 1
  56   30   33 ar
  57   31   32 1
  58   31   59 1
  59   31   60 1
  60   32   61 1
  61   32   62 1
  62   32   63 1
  63   33   64 1
  64   34   35 ar
  65   34   65 1
  66   35   36 ar
  67   35   66 1
  68   36   37 1

#	End of record

