#	Name: ASD08150916
#	Creating user name:	WinNT
#	Creation time:	15. 06. 2019 21:16

#	Modifying user name:	WinNT
#	Modification time:	15. 06. 2019 21:16

#	Program:	/corina/corina34_cracker 3.40 0067  02.08.2006

@<TRIPOS>MOLECULE
ASD08150916
  49   53    0    0    0
SMALL
NO_CHARGES


@<TRIPOS>ATOM
   1 N1            -0.2723     1.4098     0.0585 N.2     
   2 C2            -0.6756     0.2766     0.5554 C.2     
   3 N3            -0.3428     0.2020     1.8752 N.pl3   
   4 C4             0.3052     1.3662     2.2024 C.ar    
   5 N5             0.8499     1.8575     3.3105 N.ar    
   6 C6             1.4180     3.0451     3.3094 C.ar    
   7 N7             1.4775     3.8013     2.2285 N.ar    
   8 C8             0.9599     3.3939     1.0741 C.ar    
   9 C9             0.3431     2.1325     1.0251 C.ar    
  10 N10            1.0267     4.1937    -0.0533 N.pl3   
  11 C11            1.6735     5.5064     0.0171 C.3     
  12 C12            2.1609     5.9101    -1.3758 C.3     
  13 N13            0.6001     9.7966     2.1285 N.ar    
  14 N14           -0.2549    10.6574     2.5516 N.ar    
  15 C15           -1.5661    10.4822     2.4647 C.ar    
  16 C16           -2.0834     9.3468     1.9058 C.ar    
  17 C17           -1.1737     8.3828     1.4320 C.ar    
  18 C18           -1.5994     7.1831     0.8410 C.ar    
  19 C19           -0.6777     6.2803     0.3968 C.ar    
  20 C20            0.6850     6.5272     0.5189 C.ar    
  21 C21            1.1456     7.6979     1.0956 C.ar    
  22 C22            0.2122     8.6522     1.5652 C.ar    
  23 C23            2.5998     7.9493     1.2200 C.ar    
  24 C24            3.1901     9.0011     0.5181 C.ar    
  25 C25            4.5455     9.2324     0.6370 C.ar    
  26 C26            5.3215     8.4182     1.4551 C.ar    
  27 C27            4.7363     7.3717     2.1532 C.ar    
  28 C28            3.3811     7.1388     2.0432 C.ar    
  29 O29            6.6562     8.6480     1.5705 O.3     
  30 C30            7.3932     7.7738     2.4275 C.3     
  31 F31            5.1188    10.2499    -0.0420 F       
  32 Cl32          -3.2947     6.8482     0.6761 Cl      
  33 H33           -1.1972    -0.4914     0.0035 H       
  34 H34           -0.5302    -0.5382     2.4734 H       
  35 H35            1.8513     3.4149     4.2269 H       
  36 H36            0.6453     3.8852    -0.8901 H       
  37 H37            2.5225     5.4570     0.6989 H       
  38 H38            2.8759     5.1718    -1.7388 H       
  39 H39            1.3119     5.9595    -2.0577 H       
  40 H40            2.6421     6.8867    -1.3235 H       
  41 H41           -2.2329    11.2445     2.8398 H       
  42 H42           -3.1501     9.1950     1.8310 H       
  43 H43           -1.0122     5.3591    -0.0570 H       
  44 H44            2.5872     9.6329    -0.1173 H       
  45 H45            5.3420     6.7410     2.7871 H       
  46 H46            2.9262     6.3268     2.5910 H       
  47 H47            6.9962     7.8383     3.4406 H       
  48 H48            7.3026     6.7494     2.0663 H       
  49 H49            8.4431     8.0668     2.4294 H       
@<TRIPOS>BOND
   1    1    2 2
   2    1    9 1
   3    2    3 1
   4    2   33 1
   5    3    4 1
   6    3   34 1
   7    4    5 ar
   8    4    9 ar
   9    5    6 ar
  10    6    7 ar
  11    6   35 1
  12    7    8 ar
  13    8    9 ar
  14    8   10 1
  15   10   11 1
  16   10   36 1
  17   11   12 1
  18   11   20 1
  19   11   37 1
  20   12   38 1
  21   12   39 1
  22   12   40 1
  23   13   14 ar
  24   13   22 ar
  25   14   15 ar
  26   15   16 ar
  27   15   41 1
  28   16   17 ar
  29   16   42 1
  30   17   18 ar
  31   17   22 ar
  32   18   19 ar
  33   18   32 1
  34   19   20 ar
  35   19   43 1
  36   20   21 ar
  37   21   22 ar
  38   21   23 1
  39   23   24 ar
  40   23   28 ar
  41   24   25 ar
  42   24   44 1
  43   25   26 ar
  44   25   31 1
  45   26   27 ar
  46   26   29 1
  47   27   28 ar
  48   27   45 1
  49   28   46 1
  50   29   30 1
  51   30   47 1
  52   30   48 1
  53   30   49 1

#	End of record

