#	Name: ASD01148114
#	Creating user name:	WinNT
#	Creation time:	15. 06. 2019 19:02

#	Modifying user name:	WinNT
#	Modification time:	15. 06. 2019 19:02

#	Program:	/corina/corina34_cracker 3.40 0067  02.08.2006

@<TRIPOS>MOLECULE
ASD01148114
  31   31    0    0    0
SMALL
NO_CHARGES


@<TRIPOS>ATOM
   1 C1            -0.1943     1.1270     0.0659 C.ar    
   2 C2            -0.4504    -0.2281    -0.0320 C.ar    
   3 C3             1.1108     1.5767     0.2008 C.ar    
   4 C4             2.1563     0.6650     0.2371 C.ar    
   5 C5             1.8956    -0.6879     0.1389 C.ar    
   6 C6             0.5939    -1.1346     0.0050 C.ar    
   7 C7            -1.3314     2.1148     0.0198 C.3     
   8 C8            -1.4048     2.8703     1.3483 C.3     
   9 C9            -1.0979     3.1085    -1.1198 C.3     
  10 C10            3.5754     1.1507     0.3830 C.3     
  11 C11            4.1868     0.5638     1.6568 C.3     
  12 C12            4.3948     0.7032    -0.8291 C.3     
  13 O13            1.3653     2.9082     0.2967 O.3     
  14 Br14          -2.2292    -0.8427    -0.2159 Br      
  15 H15            2.7093    -1.3975     0.1668 H       
  16 H16            0.3922    -2.1929    -0.0713 H       
  17 H17           -2.2680     1.5830    -0.1480 H       
  18 H18           -2.2934     3.5015     1.3586 H       
  19 H19           -1.4569     2.1561     2.1700 H       
  20 H20           -0.5165     3.4914     1.4625 H       
  21 H21           -0.9136     2.5631    -2.0454 H       
  22 H22           -1.9794     3.7386    -1.2388 H       
  23 H23           -0.2345     3.7318    -0.8872 H       
  24 H24            3.5824     2.2390     0.4447 H       
  25 H25            5.2132     0.9151     1.7624 H       
  26 H26            3.6030     0.8826     2.5204 H       
  27 H27            4.1798    -0.5244     1.5952 H       
  28 H28            3.9592     1.1214    -1.7365 H       
  29 H29            5.4212     1.0545    -0.7235 H       
  30 H30            4.3878    -0.3850    -0.8907 H       
  31 H31            1.3651     3.2443     1.2034 H       
@<TRIPOS>BOND
   1    1    2 ar
   2    1    3 ar
   3    1    7 1
   4    2   14 1
   5    2    6 ar
   6    3    4 ar
   7    3   13 1
   8    4    5 ar
   9    4   10 1
  10    5    6 ar
  11    5   15 1
  12    6   16 1
  13    7    8 1
  14    7    9 1
  15    7   17 1
  16    8   18 1
  17    8   19 1
  18    8   20 1
  19    9   21 1
  20    9   22 1
  21    9   23 1
  22   10   11 1
  23   10   12 1
  24   10   24 1
  25   11   25 1
  26   11   26 1
  27   11   27 1
  28   12   28 1
  29   12   29 1
  30   12   30 1
  31   13   31 1

#	End of record

