#	Name: ASD04590336
#	Creating user name:	WinNT
#	Creation time:	15. 06. 2019 20:50

#	Modifying user name:	WinNT
#	Modification time:	15. 06. 2019 20:50

#	Program:	/corina/corina34_cracker 3.40 0067  02.08.2006

@<TRIPOS>MOLECULE
ASD04590336
  42   46    0    0    0
SMALL
NO_CHARGES


@<TRIPOS>ATOM
   1 C1            -0.0167     1.3834     0.0096 C.ar    
   2 C2             0.0021    -0.0041     0.0020 C.ar    
   3 C3             1.1863    -0.6848    -0.0125 C.ar    
   4 C4             2.3948     0.0191    -0.0203 C.ar    
   5 C5             2.3756     1.4250    -0.0131 C.ar    
   6 C6             1.1624     2.0987     0.0022 C.ar    
   7 N7             3.6952    -0.3636    -0.0349 N.2     
   8 C8             4.4665     0.6967    -0.0371 C.2     
   9 N9             3.6970     1.8290    -0.0239 N.pl3   
  10 C10            5.9437     0.6731    -0.0508 C.2     
  11 C11            6.7566    -0.4840    -0.0642 C.2     
  12 C12            8.0505    -0.0800    -0.0741 C.2     
  13 N13            8.0626     1.2789    -0.0672 N.pl3   
  14 N14            6.7358     1.7273    -0.0585 N.2     
  15 N15            6.3044    -1.8133    -0.0668 N.am    
  16 C16            7.1924    -2.8271    -0.0802 C.2     
  17 C17            6.7172    -4.2242    -0.0829 C.ar    
  18 O18            8.3853    -2.5906    -0.0900 O.2     
  19 C19            4.9060    -5.7893    -0.0685 C.ar    
  20 C20            5.8271    -6.8409    -0.0882 C.ar    
  21 C21            7.1984    -6.5690    -0.0994 C.ar    
  22 C22            7.6383    -5.2760    -0.0968 C.ar    
  23 C23            5.3458    -4.4962    -0.0659 C.ar    
  24 C24            5.3518    -8.2381    -0.0911 C.2     
  25 C25            6.1239    -9.3568    -0.1092 C.2     
  26 N26            5.3009   -10.4147    -0.1050 N.2     
  27 C27            4.0676    -9.9910    -0.0852 C.2     
  28 O28            4.0652    -8.6517    -0.0703 O.3     
  29 H29           -0.9614     1.9069     0.0170 H       
  30 H30           -0.9290    -0.5513     0.0080 H       
  31 H31            1.1893    -1.7648    -0.0177 H       
  32 H32            1.1417     3.1785     0.0075 H       
  33 H33            4.0192     2.7439    -0.0221 H       
  34 H34            8.9176    -0.7236    -0.0848 H       
  35 H35            8.8532     1.8410    -0.0714 H       
  36 H36            5.3530    -2.0020    -0.0590 H       
  37 H37            3.8467    -5.9994    -0.0602 H       
  38 H38            7.9099    -7.3814    -0.1146 H       
  39 H39            8.6977    -5.0660    -0.1058 H       
  40 H40            4.6343    -3.6839    -0.0504 H       
  41 H41            7.2034    -9.3876    -0.1245 H       
  42 H42            3.1892   -10.6193    -0.0773 H       
@<TRIPOS>BOND
   1    1    2 ar
   2    1    6 ar
   3    1   29 1
   4    2    3 ar
   5    2   30 1
   6    3    4 ar
   7    3   31 1
   8    4    5 ar
   9    4    7 1
  10    5    6 ar
  11    5    9 1
  12    6   32 1
  13    7    8 2
  14    8    9 1
  15    8   10 1
  16    9   33 1
  17   10   11 1
  18   10   14 2
  19   11   12 2
  20   11   15 1
  21   12   13 1
  22   12   34 1
  23   13   14 1
  24   13   35 1
  25   15   16 am
  26   15   36 1
  27   16   17 1
  28   16   18 2
  29   17   22 ar
  30   17   23 ar
  31   19   20 ar
  32   19   23 ar
  33   19   37 1
  34   20   21 ar
  35   20   24 1
  36   21   22 ar
  37   21   38 1
  38   22   39 1
  39   23   40 1
  40   24   25 2
  41   24   28 1
  42   25   26 1
  43   25   41 1
  44   26   27 2
  45   27   28 1
  46   27   42 1

#	End of record

