#	Name: ASD03330924
#	Creating user name:	WinNT
#	Creation time:	15. 06. 2019 20:38

#	Modifying user name:	WinNT
#	Modification time:	15. 06. 2019 20:38

#	Program:	/corina/corina34_cracker 3.40 0067  02.08.2006

@<TRIPOS>MOLECULE
ASD03330924
  65   68    0    0    0
SMALL
NO_CHARGES


@<TRIPOS>ATOM
   1 N1             0.1544     0.9729    -0.0299 N.pl3   
   2 C2             0.0385    -0.3643     0.1893 C.2     
   3 C3             1.1617    -1.2910     0.5753 C.3     
   4 N4             1.9323    -0.6841     1.6718 N.3     
   5 C5             3.0073     0.1664     1.1571 C.3     
   6 C6             2.5901     0.8463    -0.1437 C.3     
   7 C7             1.3852     1.7563     0.1102 C.3     
   8 C8            -1.0782     1.4367    -0.3872 C.2     
   9 N9            -1.9240     0.4331    -0.3720 N.2     
  10 C10           -1.2665    -0.6930    -0.0171 C.2     
  11 C11           -1.8562    -2.0362     0.1208 C.2     
  12 O12           -1.1574    -2.9766     0.4474 O.2     
  13 N13           -3.1700    -2.2229    -0.1150 N.am    
  14 C14           -1.4063     2.8364    -0.7332 C.ar    
  15 C15           -2.1815     3.1165    -1.8618 C.ar    
  16 C16           -2.4855     4.4262    -2.1801 C.ar    
  17 C17           -2.0230     5.4603    -1.3834 C.ar    
  18 C18           -1.2523     5.1876    -0.2618 C.ar    
  19 C19           -0.9478     3.8819     0.0691 C.ar    
  20 F20           -0.8036     6.2011     0.5107 F       
  21 F21           -2.3227     6.7392    -1.6993 F       
  22 F22           -2.6325     2.1086    -2.6402 F       
  23 C23            2.4319    -1.6542     2.5232 C.ar    
  24 N24            3.1899    -2.6214     2.0277 N.ar    
  25 C25            3.6832    -3.5639     2.8139 C.ar    
  26 C26            3.3982    -3.5307     4.1699 C.ar    
  27 C27            2.6021    -2.5050     4.6548 C.ar    
  28 N28            2.1452    -1.5907     3.8151 N.ar    
  29 C29           -4.9897    -3.6563    -0.8383 C.2     
  30 C30           -3.7563    -3.5584     0.0221 C.3     
  31 C31           -4.1341    -3.8018     1.4847 C.3     
  32 C32           -5.2023    -2.7924     1.9102 C.3     
  33 O33           -5.6251    -2.6578    -1.1032 O.2     
  34 N34           -5.3866    -4.8534    -1.3134 N.am    
  35 C35           -6.6431    -4.9659    -2.0583 C.3     
  36 C36           -4.6832    -5.2214     1.6401 C.3     
  37 C37           -2.8948    -3.6349     2.3661 C.3     
  38 H38            0.7501    -2.2453     0.9039 H       
  39 H39            1.8137    -1.4506    -0.2835 H       
  40 H40            3.2471     0.9284     1.8986 H       
  41 H41            3.8910    -0.4449     0.9742 H       
  42 H42            3.4202     1.4418    -0.5238 H       
  43 H43            2.3227     0.0879    -0.8795 H       
  44 H44            1.3837     2.5700    -0.6151 H       
  45 H45            1.4438     2.1657     1.1187 H       
  46 H46           -3.7273    -1.4729    -0.3755 H       
  47 H47           -3.0845     4.6440    -3.0520 H       
  48 H48           -0.3518     3.6706     0.9446 H       
  49 H49            4.3002    -4.3499     2.4041 H       
  50 H50            3.7878    -4.2880     4.8342 H       
  51 H51            2.3611    -2.4506     5.7062 H       
  52 H52           -3.0314    -4.3078    -0.2954 H       
  53 H53           -6.0853    -2.9113     1.2823 H       
  54 H54           -5.4715    -2.9658     2.9522 H       
  55 H55           -4.8112    -1.7811     1.7995 H       
  56 H56           -4.8404    -5.6406    -1.1621 H       
  57 H57           -6.5980    -4.3327    -2.9444 H       
  58 H58           -6.7953    -6.0023    -2.3597 H       
  59 H59           -7.4707    -4.6463    -1.4251 H       
  60 H60           -3.9011    -5.9417     1.3999 H       
  61 H61           -5.0134    -5.3727     2.6678 H       
  62 H62           -5.5261    -5.3611     0.9633 H       
  63 H63           -2.5036    -2.6235     2.2554 H       
  64 H64           -3.1639    -3.8083     3.4080 H       
  65 H65           -2.1338    -4.3540     2.0629 H       
@<TRIPOS>BOND
   1    1    2 1
   2    1    7 1
   3    1    8 1
   4    2    3 1
   5    2   10 2
   6    3    4 1
   7    3   38 1
   8    3   39 1
   9    4    5 1
  10    4   23 1
  11    5    6 1
  12    5   40 1
  13    5   41 1
  14    6    7 1
  15    6   42 1
  16    6   43 1
  17    7   44 1
  18    7   45 1
  19    8    9 2
  20    8   14 1
  21    9   10 1
  22   10   11 1
  23   11   12 2
  24   11   13 am
  25   13   30 1
  26   13   46 1
  27   14   15 ar
  28   14   19 ar
  29   15   16 ar
  30   15   22 1
  31   16   17 ar
  32   16   47 1
  33   17   18 ar
  34   17   21 1
  35   18   19 ar
  36   18   20 1
  37   19   48 1
  38   23   24 ar
  39   23   28 ar
  40   24   25 ar
  41   25   26 ar
  42   25   49 1
  43   26   27 ar
  44   26   50 1
  45   27   28 ar
  46   27   51 1
  47   29   33 2
  48   29   34 am
  49   29   30 1
  50   30   31 1
  51   30   52 1
  52   31   32 1
  53   31   36 1
  54   31   37 1
  55   32   53 1
  56   32   54 1
  57   32   55 1
  58   34   35 1
  59   34   56 1
  60   35   57 1
  61   35   58 1
  62   35   59 1
  63   36   60 1
  64   36   61 1
  65   36   62 1
  66   37   63 1
  67   37   64 1
  68   37   65 1

#	End of record

