#	Name: ASD00100072
#	Creating user name:	WinNT
#	Creation time:	15. 06. 2019 18:30

#	Modifying user name:	WinNT
#	Modification time:	15. 06. 2019 18:30

#	Program:	/corina/corina34_cracker 3.40 0067  02.08.2006

@<TRIPOS>MOLECULE
ASD00100072
  79   83    0    0    0
SMALL
NO_CHARGES


@<TRIPOS>ATOM
   1 C1            -3.5704     0.8713     1.8172 C.2     
   2 C2            -2.7692    -0.2905     1.3847 C.ar    
   3 C3            -1.3941    -0.1546     1.1763 C.ar    
   4 C4            -0.6501    -1.2408     0.7728 C.ar    
   5 C5            -1.2652    -2.4710     0.5724 C.ar    
   6 C6            -2.6328    -2.6102     0.7782 C.ar    
   7 C7            -3.3826    -1.5305     1.1882 C.ar    
   8 O8            -3.0341     1.9483     1.9925 O.2     
   9 N9            -4.8975     0.7395     2.0123 N.am    
  10 O10           -0.5286    -3.5391     0.1744 O.3     
  11 C11           -1.2004    -4.7980     0.0972 C.3     
  12 C12           -2.3050    -4.7227    -0.9587 C.3     
  13 C13           -0.1985    -5.8877    -0.2896 C.3     
  14 C14           -1.8168    -5.1313     1.4572 C.3     
  15 C15           -5.6927     1.8926     2.4415 C.3     
  16 C16           -7.1466     1.7001     2.0055 C.3     
  17 C17           -7.9772     2.9044     2.4537 C.3     
  18 C18           -7.9139     3.0288     3.9773 C.3     
  19 C19           -6.4600     3.2213     4.4134 C.3     
  20 C20           -5.6294     2.0171     3.9651 C.3     
  21 C21           -8.7444     4.2330     4.4256 C.3     
  22 C22           -8.7838     4.2849     5.9542 C.3     
  23 N23           -9.5812     5.4411     6.3846 N.3     
  24 C24           -9.8407     5.3930     7.8292 C.3     
  25 C25          -10.7913     6.5282     8.2161 C.3     
  26 C26          -10.1577     7.8696     7.8367 C.3     
  27 C27           -9.8532     7.8750     6.3362 C.3     
  28 C28           -8.9298     6.7008     6.0037 C.3     
  29 O29          -12.9041    10.2692     8.1839 O.3     
  30 C30          -12.3476     9.1606     7.6655 C.2     
  31 C31          -11.1145     8.9880     8.1605 C.2     
  32 C32          -10.8832    10.1069     9.0819 C.ar    
  33 C33          -12.0596    10.8744     9.0434 C.ar    
  34 C34           -9.8202    10.4952     9.8956 C.ar    
  35 C35           -9.9304    11.6352    10.6612 C.ar    
  36 C36          -11.0915    12.3933    10.6237 C.ar    
  37 C37          -12.1500    12.0201     9.8231 C.ar    
  38 H38           -0.9156     0.8012     1.3311 H       
  39 H39            0.4126    -1.1366     0.6115 H       
  40 H40           -3.1071    -3.5677     0.6211 H       
  41 H41           -4.4444    -1.6406     1.3525 H       
  42 H42           -5.3260    -0.1187     1.8685 H       
  43 H43           -1.8718    -4.8659    -1.9486 H       
  44 H44           -3.0429    -5.5021    -0.7688 H       
  45 H45           -2.7873    -3.7463    -0.9110 H       
  46 H46            0.5885    -5.9414     0.4626 H       
  47 H47           -0.7109    -6.8480    -0.3485 H       
  48 H48            0.2406    -5.6502    -1.2586 H       
  49 H49           -2.3615    -4.2646     1.8316 H       
  50 H50           -2.5019    -5.9722     1.3493 H       
  51 H51           -1.0261    -5.3948     2.1598 H       
  52 H52           -5.2938     2.7990     1.9860 H       
  53 H53           -7.1917     1.6115     0.9200 H       
  54 H54           -7.5456     0.7938     2.4609 H       
  55 H55           -7.5782     3.8107     1.9983 H       
  56 H56           -9.0129     2.7672     2.1431 H       
  57 H57           -8.3128     2.1225     4.4328 H       
  58 H58           -6.0610     4.1276     3.9579 H       
  59 H59           -6.4149     3.3100     5.4988 H       
  60 H60           -6.0284     1.1107     4.4206 H       
  61 H61           -4.5937     2.1542     4.2758 H       
  62 H62           -8.2933     5.1484     4.0425 H       
  63 H63           -9.7592     4.1387     4.0390 H       
  64 H64           -9.2349     3.3695     6.3373 H       
  65 H65           -7.7690     4.3792     6.3408 H       
  66 H66          -10.2950     4.4358     8.0849 H       
  67 H67           -8.9014     5.5053     8.3708 H       
  68 H68          -11.7358     6.4088     7.6853 H       
  69 H69          -10.9713     6.5018     9.2908 H       
  70 H70           -9.2327     8.0068     8.3967 H       
  71 H71          -10.7829     7.7768     5.7758 H       
  72 H72           -9.3629     8.8108     6.0677 H       
  73 H73           -7.9948     6.8070     6.5539 H       
  74 H74           -8.7225     6.6934     4.9336 H       
  75 H75          -12.8254     8.5042     6.9533 H       
  76 H76           -8.9158     9.9057     9.9260 H       
  77 H77           -9.1095    11.9398    11.2934 H       
  78 H78          -11.1672    13.2850    11.2283 H       
  79 H79          -13.0489    12.6185     9.8021 H       
@<TRIPOS>BOND
   1    1    2 1
   2    1    8 2
   3    1    9 am
   4    2    3 ar
   5    2    7 ar
   6    3    4 ar
   7    3   38 1
   8    4    5 ar
   9    4   39 1
  10    5    6 ar
  11    5   10 1
  12    6    7 ar
  13    6   40 1
  14    7   41 1
  15    9   15 1
  16    9   42 1
  17   10   11 1
  18   11   12 1
  19   11   14 1
  20   11   13 1
  21   12   43 1
  22   12   44 1
  23   12   45 1
  24   13   46 1
  25   13   47 1
  26   13   48 1
  27   14   49 1
  28   14   50 1
  29   14   51 1
  30   15   16 1
  31   15   20 1
  32   15   52 1
  33   16   17 1
  34   16   53 1
  35   16   54 1
  36   17   18 1
  37   17   55 1
  38   17   56 1
  39   18   19 1
  40   18   21 1
  41   18   57 1
  42   19   20 1
  43   19   58 1
  44   19   59 1
  45   20   60 1
  46   20   61 1
  47   21   22 1
  48   21   62 1
  49   21   63 1
  50   22   23 1
  51   22   64 1
  52   22   65 1
  53   23   24 1
  54   23   28 1
  55   24   25 1
  56   24   66 1
  57   24   67 1
  58   25   26 1
  59   25   68 1
  60   25   69 1
  61   26   27 1
  62   26   31 1
  63   26   70 1
  64   27   28 1
  65   27   71 1
  66   27   72 1
  67   28   73 1
  68   28   74 1
  69   29   30 1
  70   29   33 1
  71   30   31 2
  72   30   75 1
  73   31   32 1
  74   32   33 ar
  75   32   34 ar
  76   33   37 ar
  77   34   35 ar
  78   34   76 1
  79   35   36 ar
  80   35   77 1
  81   36   37 ar
  82   36   78 1
  83   37   79 1

#	End of record

