#	Name: ASD00843611
#	Creating user name:	WinNT
#	Creation time:	15. 06. 2019 18:47

#	Modifying user name:	WinNT
#	Modification time:	15. 06. 2019 18:47

#	Program:	/corina/corina34_cracker 3.40 0067  02.08.2006

@<TRIPOS>MOLECULE
ASD00843611
  87   92    0    0    0
SMALL
NO_CHARGES


@<TRIPOS>ATOM
   1 F1             5.6885    -2.5252    -1.9534 F       
   2 N2             0.9327     1.0796    -0.2964 N.ar    
   3 C3             1.0958    -0.2053    -0.5636 C.ar    
   4 C4             0.9416    -1.1606     0.4331 C.ar    
   5 C5             0.6141    -0.7508     1.7136 C.ar    
   6 C6             0.4517     0.6070     1.9530 C.ar    
   7 C7             0.6204     1.5008     0.9146 C.ar    
   8 C8             1.1279    -2.6238     0.1238 C.3     
   9 C9             0.7686    -3.4700     1.3265 C.2     
  10 C10            0.2828    -3.0262    -1.0865 C.3     
  11 C11           -1.1562    -2.6517    -0.8412 C.2     
  12 N12           -2.1060    -3.0087    -1.7283 N.am    
  13 O13           -1.4595    -2.0291     0.1544 O.2     
  14 C14           -3.4939    -2.5565    -1.5615 C.3     
  15 C15           -4.4173    -3.7786    -1.5883 C.3     
  16 C16           -4.1656    -4.5751    -2.8706 C.3     
  17 C17           -2.7157    -5.0646    -2.8927 C.3     
  18 C18           -1.7719    -3.8525    -2.8838 C.3     
  19 N19           -5.0726    -5.7297    -2.9155 N.3     
  20 C20           -4.9427    -6.4523    -4.1886 C.3     
  21 C21           -5.8430    -7.6898    -4.1639 C.3     
  22 N22           -7.2345    -7.2755    -3.9365 N.3     
  23 C23           -7.3645    -6.5529    -2.6634 C.3     
  24 C24           -6.4641    -5.3155    -2.6881 C.3     
  25 C25           -8.1416    -8.4301    -3.9814 C.3     
  26 O26           -0.3158    -3.5310     1.8663 O.2     
  27 N27            1.8766    -4.1411     1.6835 N.am    
  28 C28            2.5875    -2.9317    -0.1200 C.ar    
  29 C29            2.9618    -3.8479     0.8550 C.ar    
  30 C30            3.4931    -2.4884    -1.0575 C.ar    
  31 C31            4.7967    -2.9572    -1.0351 C.ar    
  32 C32            5.1826    -3.8719    -0.0669 C.ar    
  33 C33            4.2734    -4.3165     0.8737 C.ar    
  34 F34            6.4532    -4.3303    -0.0432 F       
  35 C35            1.5324    -6.7913     2.3410 C.ar    
  36 C36            0.2593    -7.0354     1.8474 C.ar    
  37 C37            2.4768    -7.7998     2.3421 C.ar    
  38 C38            2.1539    -9.0513     1.8514 C.ar    
  39 C39            0.8854    -9.2972     1.3588 C.ar    
  40 C40           -0.0624    -8.2925     1.3559 C.ar    
  41 H41            0.6356   -10.2757     0.9760 H       
  42 O42           -0.6715    -6.0452     1.8457 O.3     
  43 C43           -1.9613    -6.3682     1.3224 C.3     
  44 S44            1.9472    -5.1943     2.9594 S.o2    
  45 O45            3.3113    -5.2580     3.3522 O.2     
  46 O46            0.8999    -4.8226     3.8450 O.2     
  47 O47            1.4163    -0.5942    -1.8233 O.3     
  48 C48            1.5134     0.4311    -2.8139 C.3     
  49 C49            1.9822    -0.1798    -4.1360 C.3     
  50 F50            3.1939    -0.8500    -3.9363 F       
  51 F51            1.0201    -1.0837    -4.5992 F       
  52 H52            0.4875    -1.4709     2.5085 H       
  53 H53            0.1958     0.9602     2.9410 H       
  54 H54            0.4955     2.5582     1.0956 H       
  55 H55            0.6473    -2.5072    -1.9729 H       
  56 H56            0.3570    -4.1029    -1.2396 H       
  57 H57           -3.5980    -2.0408    -0.6069 H       
  58 H58           -3.7584    -1.8808    -2.3749 H       
  59 H59           -4.2124    -4.4084    -0.7226 H       
  60 H60           -5.4563    -3.4502    -1.5621 H       
  61 H61           -4.3468    -3.9373    -3.7358 H       
  62 H62           -2.5268    -5.6823    -2.0148 H       
  63 H63           -2.5436    -5.6515    -3.7950 H       
  64 H64           -1.8973    -3.2849    -3.8059 H       
  65 H65           -0.7401    -4.1934    -2.7996 H       
  66 H66           -5.2429    -5.8005    -5.0090 H       
  67 H67           -3.9062    -6.7594    -4.3282 H       
  68 H68           -5.7703    -8.2115    -5.1182 H       
  69 H69           -5.5256    -8.3545    -3.3606 H       
  70 H70           -8.4009    -6.2458    -2.5238 H       
  71 H71           -7.0643    -7.2047    -1.8430 H       
  72 H72           -6.5369    -4.7938    -1.7338 H       
  73 H73           -6.7816    -4.6507    -3.4915 H       
  74 H74           -7.8588    -9.1446    -3.2083 H       
  75 H75           -9.1647    -8.0953    -3.8101 H       
  76 H76           -8.0743    -8.9071    -4.9592 H       
  77 H77            3.1876    -1.7762    -1.8098 H       
  78 H78            4.5805    -5.0286     1.6253 H       
  79 H79            3.4682    -7.6103     2.7263 H       
  80 H80            2.8937    -9.8381     1.8525 H       
  81 H81           -1.0532    -8.4852     0.9717 H       
  82 H82           -2.6066    -5.4916     1.3796 H       
  83 H83           -1.8638    -6.6803     0.2826 H       
  84 H84           -2.3975    -7.1791     1.9057 H       
  85 H85            0.5368     0.8946    -2.9540 H       
  86 H86            2.2299     1.1849    -2.4877 H       
  87 H87            2.1217     0.6114    -4.8726 H       
@<TRIPOS>BOND
   1    1   31 1
   2    2    3 ar
   3    2    7 ar
   4    3    4 ar
   5    3   47 1
   6    4    5 ar
   7    4    8 1
   8    5    6 ar
   9    5   52 1
  10    6    7 ar
  11    6   53 1
  12    7   54 1
  13    8    9 1
  14    8   10 1
  15    8   28 1
  16    9   26 2
  17    9   27 am
  18   10   11 1
  19   10   55 1
  20   10   56 1
  21   11   12 am
  22   11   13 2
  23   12   14 1
  24   12   18 1
  25   14   15 1
  26   14   57 1
  27   14   58 1
  28   15   16 1
  29   15   59 1
  30   15   60 1
  31   16   17 1
  32   16   19 1
  33   16   61 1
  34   17   18 1
  35   17   62 1
  36   17   63 1
  37   18   64 1
  38   18   65 1
  39   19   20 1
  40   19   24 1
  41   20   21 1
  42   20   66 1
  43   20   67 1
  44   21   22 1
  45   21   68 1
  46   21   69 1
  47   22   23 1
  48   22   25 1
  49   23   24 1
  50   23   70 1
  51   23   71 1
  52   24   72 1
  53   24   73 1
  54   25   74 1
  55   25   75 1
  56   25   76 1
  57   27   44 am
  58   27   29 1
  59   28   29 ar
  60   28   30 ar
  61   29   33 ar
  62   30   31 ar
  63   30   77 1
  64   31   32 ar
  65   32   33 ar
  66   32   34 1
  67   33   78 1
  68   35   36 ar
  69   35   37 ar
  70   35   44 1
  71   36   42 1
  72   36   40 ar
  73   37   38 ar
  74   37   79 1
  75   38   39 ar
  76   38   80 1
  77   39   40 ar
  78   39   41 1
  79   40   81 1
  80   42   43 1
  81   43   82 1
  82   43   83 1
  83   43   84 1
  84   44   45 2
  85   44   46 2
  86   47   48 1
  87   48   49 1
  88   48   85 1
  89   48   86 1
  90   49   50 1
  91   49   51 1
  92   49   87 1

#	End of record

