#	Name: ASD03090937
#	Creating user name:	WinNT
#	Creation time:	15. 06. 2019 20:29

#	Modifying user name:	WinNT
#	Modification time:	15. 06. 2019 20:29

#	Program:	/corina/corina34_cracker 3.40 0067  02.08.2006

@<TRIPOS>MOLECULE
ASD03090937
  50   54    0    0    0
SMALL
NO_CHARGES


@<TRIPOS>ATOM
   1 N1            -0.0063     1.4714    -0.0616 N.am    
   2 C2             0.0190     0.0063    -0.0715 C.3     
   3 C3             1.5086    -0.3707    -0.1247 C.3     
   4 C4             2.2362     0.9549    -0.1413 C.ar    
   5 C5             3.5860     1.2471    -0.1852 C.ar    
   6 C6             4.0119     2.5621    -0.1907 C.ar    
   7 C7             3.0832     3.5861    -0.1527 C.ar    
   8 C8             1.7356     3.2995    -0.1093 C.ar    
   9 C9             1.2976     1.9736    -0.1030 C.ar    
  10 C10           -1.1233     2.2246    -0.0239 C.2     
  11 O11           -2.2186     1.6942    -0.0946 O.2     
  12 N12           -1.0302     3.5523     0.0908 N.2     
  13 S13           -3.7252     3.7795    -0.3429 S.3     
  14 C14           -2.1257     4.3049     0.0193 C.2     
  15 N15           -2.2128     5.6446     0.2171 N.pl3   
  16 C16           -3.4464     6.2069     0.0915 C.2     
  17 C17           -4.4480     5.3921    -0.2125 C.2     
  18 O18            2.2415     8.6728     1.5009 O.3     
  19 C19            2.7713     9.5274     0.4817 C.3     
  20 C20            1.6037    10.2857    -0.1641 C.3     
  21 O21            0.7004     9.3257    -0.7229 O.3     
  22 C22            0.3738     8.2632     0.0626 C.ar    
  23 C23            1.1449     7.9351     1.1723 C.ar    
  24 C24           -0.7409     7.5025    -0.2531 C.ar    
  25 C25           -1.0849     6.4138     0.5363 C.ar    
  26 C26           -0.3121     6.0875     1.6421 C.ar    
  27 C27            0.7984     6.8462     1.9581 C.ar    
  28 F28            0.9423    11.0476     0.8051 F       
  29 F29            2.0868    11.1234    -1.1750 F       
  30 F30            3.6691    10.4380     1.0491 F       
  31 F31            3.4267     8.7579    -0.4855 F       
  32 C32           -5.8962     5.7606    -0.4069 C.3     
  33 C33           -0.6226    -0.5443     1.2037 C.3     
  34 H34           -0.4991    -0.3749    -0.9515 H       
  35 H35            1.7869    -0.9461     0.7582 H       
  36 H36            1.7258    -0.9350    -1.0315 H       
  37 H37            4.3099     0.4462    -0.2148 H       
  38 H38            5.0672     2.7893    -0.2243 H       
  39 H39            3.4149     4.6139    -0.1566 H       
  40 H40            1.0155     4.1038    -0.0798 H       
  41 H41           -3.6022     7.2662     0.2332 H       
  42 H42           -1.3420     7.7570    -1.1135 H       
  43 H43           -0.5790     5.2398     2.2559 H       
  44 H44            1.3983     6.5906     2.8190 H       
  45 H45           -6.4695     4.8657    -0.6492 H       
  46 H46           -6.2847     6.2037     0.5100 H       
  47 H47           -5.9821     6.4788    -1.2223 H       
  48 H48           -1.6646    -0.2280     1.2518 H       
  49 H49           -0.5735    -1.6331     1.1942 H       
  50 H50           -0.0869    -0.1639     2.0734 H       
@<TRIPOS>BOND
   1    1    2 1
   2    1    9 1
   3    1   10 am
   4    2    3 1
   5    2   33 1
   6    2   34 1
   7    3    4 1
   8    3   35 1
   9    3   36 1
  10    4    5 ar
  11    4    9 ar
  12    5    6 ar
  13    5   37 1
  14    6    7 ar
  15    6   38 1
  16    7    8 ar
  17    7   39 1
  18    8    9 ar
  19    8   40 1
  20   10   11 2
  21   10   12 1
  22   12   14 2
  23   13   14 1
  24   13   17 1
  25   14   15 1
  26   15   16 1
  27   15   25 1
  28   16   17 2
  29   16   41 1
  30   17   32 1
  31   18   19 1
  32   18   23 1
  33   19   20 1
  34   19   30 1
  35   19   31 1
  36   20   21 1
  37   20   28 1
  38   20   29 1
  39   21   22 1
  40   22   23 ar
  41   22   24 ar
  42   23   27 ar
  43   24   25 ar
  44   24   42 1
  45   25   26 ar
  46   26   27 ar
  47   26   43 1
  48   27   44 1
  49   32   45 1
  50   32   46 1
  51   32   47 1
  52   33   48 1
  53   33   49 1
  54   33   50 1

#	End of record

