#	Name: ASD01810720
#	Creating user name:	WinNT
#	Creation time:	15. 06. 2019 19:25

#	Modifying user name:	WinNT
#	Modification time:	15. 06. 2019 19:25

#	Program:	/corina/corina34_cracker 3.40 0067  02.08.2006

@<TRIPOS>MOLECULE
ASD01810720
  38   42    0    0    0
SMALL
NO_CHARGES


@<TRIPOS>ATOM
   1 N1            -0.0153     1.2784     0.0091 N.pl3   
   2 N2             0.0021    -0.0041     0.0020 N.2     
   3 C3             1.0992    -0.7158    -0.0123 C.2     
   4 C4             2.4157    -0.0320    -0.0211 C.2     
   5 C5             2.3886     1.4423    -0.0134 C.ar    
   6 C6             3.5452     2.2104    -0.0213 C.ar    
   7 C7             3.4472     3.5872    -0.0144 C.ar    
   8 C8             2.2029     4.1988     0.0009 C.ar    
   9 C9             1.0468     3.4467     0.0089 C.ar    
  10 C10            1.1229     2.0588     0.0024 C.ar    
  11 N11            2.7672    -2.2287    -0.0363 N.am    
  12 N12            3.3335    -0.9515    -0.0348 N.2     
  13 C13            1.4194    -2.1450    -0.0230 C.2     
  14 O14            0.6278    -3.0730    -0.0198 O.2     
  15 C15           -1.3160     1.9525     0.0188 C.3     
  16 C16           -2.5271     1.2423    -2.0580 C.ar    
  17 C17           -1.7686     2.1913    -1.3987 C.ar    
  18 C18           -1.4280     3.3665    -2.0542 C.ar    
  19 C19           -1.8635     3.5476    -3.3549 C.ar    
  20 C20           -2.6254     2.5489    -3.9593 C.ar    
  21 N21           -2.9295     1.4393    -3.2974 N.ar    
  22 S22           -4.1805     2.4204    -7.6148 S.3     
  23 C23           -3.3030     3.8460    -7.2702 C.2     
  24 N24           -2.8342     3.8088    -6.0717 N.2     
  25 C25           -3.1000     2.7277    -5.3518 C.2     
  26 C26           -3.8410     1.8046    -5.9994 C.2     
  27 H27            4.5144     1.7341    -0.0325 H       
  28 H28            4.3430     4.1903    -0.0204 H       
  29 H29            2.1383     5.2769     0.0069 H       
  30 H30            0.0838     3.9354     0.0204 H       
  31 H31            3.2705    -3.0578    -0.0452 H       
  32 H32           -2.0457     1.3266     0.5326 H       
  33 H33           -1.2268     2.9070     0.5374 H       
  34 H34           -2.7899     0.3250    -1.5521 H       
  35 H35           -0.8365     4.1228    -1.5597 H       
  36 H36           -1.6169     4.4503    -3.8943 H       
  37 H37           -3.1616     4.6638    -7.9612 H       
  38 H38           -4.1680     0.8566    -5.5987 H       
@<TRIPOS>BOND
   1    1    2 1
   2    1   10 1
   3    1   15 1
   4    2    3 2
   5    3    4 1
   6    3   13 1
   7    4    5 1
   8    4   12 2
   9    5    6 ar
  10    5   10 ar
  11    6    7 ar
  12    6   27 1
  13    7    8 ar
  14    7   28 1
  15    8    9 ar
  16    8   29 1
  17    9   10 ar
  18    9   30 1
  19   11   12 1
  20   11   13 am
  21   11   31 1
  22   13   14 2
  23   15   17 1
  24   15   32 1
  25   15   33 1
  26   16   17 ar
  27   16   21 ar
  28   16   34 1
  29   17   18 ar
  30   18   19 ar
  31   18   35 1
  32   19   20 ar
  33   19   36 1
  34   20   21 ar
  35   20   25 1
  36   22   23 1
  37   22   26 1
  38   23   24 2
  39   23   37 1
  40   24   25 1
  41   25   26 2
  42   26   38 1

#	End of record

