#	Name: ASD02508344
#	Creating user name:	WinNT
#	Creation time:	15. 06. 2019 20:24

#	Modifying user name:	WinNT
#	Modification time:	15. 06. 2019 20:24

#	Program:	/corina/corina34_cracker 3.40 0067  02.08.2006

@<TRIPOS>MOLECULE
ASD02508344
  41   43    0    0    0
SMALL
NO_CHARGES


@<TRIPOS>ATOM
   1 C1            -0.0167     1.3788     0.0096 C.ar    
   2 C2             0.0021    -0.0041     0.0020 C.ar    
   3 C3             1.2103    -0.6754    -0.0132 C.ar    
   4 C4             2.3972     0.0320    -0.0208 C.ar    
   5 C5             2.3896     1.4179    -0.0132 C.ar    
   6 C6             1.1646     2.0889     0.0022 C.ar    
   7 C7             3.8335    -0.4407    -0.0371 C.3     
   8 C8             4.6655     0.8522    -0.0381 C.3     
   9 N9             3.6839     1.9402    -0.0228 N.am    
  10 S10            4.0561     3.5538    -0.0177 S.o2    
  11 O11            2.9351     4.1700     0.6010 O.2     
  12 O12            5.3457     3.6142     0.5760 O.2     
  13 C13            4.1417     4.0041    -1.7729 C.3     
  14 S14           -1.5104    -0.9079     0.0122 S.o2    
  15 C15           -1.9749    -1.1665    -1.6677 C.ar    
  16 O16           -1.2084    -2.1894     0.5468 O.2     
  17 O17           -2.4904    -0.0440     0.5711 O.2     
  18 C18           -1.5423    -2.2962    -2.3373 C.ar    
  19 C19           -2.7760    -0.2422    -2.3123 C.ar    
  20 C20           -3.1420    -0.4428    -3.6292 C.ar    
  21 C21           -2.7049    -1.5728    -4.3049 C.ar    
  22 C22           -1.9051    -2.5012    -3.6544 C.ar    
  23 O23           -3.0638    -1.7726    -5.6003 O.3     
  24 C24           -2.5771    -2.9579    -6.2329 C.3     
  25 H25           -0.9603     1.9041     0.0169 H       
  26 H26            1.2267    -1.7552    -0.0188 H       
  27 H27            1.1430     3.1686     0.0078 H       
  28 H28            4.0497    -1.0314     0.8532 H       
  29 H29            4.0325    -1.0217    -0.9376 H       
  30 H30            5.2945     0.8979     0.8509 H       
  31 H31            5.2773     0.9075    -0.9385 H       
  32 H32            3.1787     3.8101    -2.2451 H       
  33 H33            4.3848     5.0627    -1.8649 H       
  34 H34            4.9130     3.4102    -2.2632 H       
  35 H35           -0.9199    -3.0187    -1.8303 H       
  36 H36           -3.1163     0.6372    -1.7857 H       
  37 H37           -3.7681     0.2793    -4.1321 H       
  38 H38           -1.5635    -3.3817    -4.1783 H       
  39 H39           -1.4872    -2.9506    -6.2288 H       
  40 H40           -2.9366    -3.8328    -5.6911 H       
  41 H41           -2.9364    -2.9946    -7.2614 H       
@<TRIPOS>BOND
   1    1    2 ar
   2    1    6 ar
   3    1   25 1
   4    2    3 ar
   5    2   14 1
   6    3    4 ar
   7    3   26 1
   8    4    5 ar
   9    4    7 1
  10    5    6 ar
  11    5    9 1
  12    6   27 1
  13    7    8 1
  14    7   28 1
  15    7   29 1
  16    8    9 1
  17    8   30 1
  18    8   31 1
  19    9   10 am
  20   10   11 2
  21   10   12 2
  22   10   13 1
  23   13   32 1
  24   13   33 1
  25   13   34 1
  26   14   15 1
  27   14   16 2
  28   14   17 2
  29   15   18 ar
  30   15   19 ar
  31   18   22 ar
  32   18   35 1
  33   19   20 ar
  34   19   36 1
  35   20   21 ar
  36   20   37 1
  37   21   22 ar
  38   21   23 1
  39   22   38 1
  40   23   24 1
  41   24   39 1
  42   24   40 1
  43   24   41 1

#	End of record

