#	Name: ASD08170111
#	Creating user name:	WinNT
#	Creation time:	15. 06. 2019 21:17

#	Modifying user name:	WinNT
#	Modification time:	15. 06. 2019 21:17

#	Program:	/corina/corina34_cracker 3.40 0067  02.08.2006

@<TRIPOS>MOLECULE
ASD08170111
  71   74    0    0    0
SMALL
NO_CHARGES


@<TRIPOS>ATOM
   1 C1            -0.0187     1.5258     0.0104 C.3     
   2 C2             0.0021    -0.0041     0.0020 C.3     
   3 C3             1.4543     3.9531     0.0094 C.3     
   4 C4             2.8209     4.6411     0.0000 C.3     
   5 C5             2.6307     6.1360     0.0099 C.2     
   6 C6            -1.4117    -0.5257     0.0127 C.2     
   7 S7             2.4859     7.1758    -1.4077 S.3     
   8 C8             2.3219     8.5311    -0.3728 C.2     
   9 N9             2.3845     8.1242     0.8591 N.2     
  10 N10            2.5387     6.8875     1.0608 N.2     
  11 S11           -2.3742    -0.8935     1.4445 S.3     
  12 N12           -2.1404    -0.7792    -1.0277 N.2     
  13 N13           -3.3061    -1.2119    -0.8091 N.2     
  14 C14           -3.6713    -1.3622     0.4283 C.2     
  15 N15           -4.9107    -1.8251     0.8572 N.am    
  16 C16           -5.8536    -2.1613    -0.0452 C.2     
  17 O17           -5.6213    -2.0602    -1.2312 O.2     
  18 N18            2.1507     9.8487    -0.7837 N.am    
  19 C19            2.0334    10.8303     0.1323 C.2     
  20 C20            1.8479    12.2581    -0.3129 C.3     
  21 O21            2.0771    10.5647     1.3149 O.2     
  22 C22           -7.1965    -2.6628     0.4196 C.3     
  23 C23            1.7442    13.1518     0.8961 C.ar    
  24 C24           -8.0610    -2.9663    -0.7770 C.ar    
  25 C25            2.8841    13.7129     1.4407 C.ar    
  26 C26           -8.0431    -4.2285    -1.3403 C.ar    
  27 S27            1.6831     2.1537    -0.0024 S.3     
  28 C28            2.7890    14.5326     2.5496 C.ar    
  29 C29            1.5539    14.7917     3.1138 C.ar    
  30 C30            0.4138    14.2313     2.5687 C.ar    
  31 C31            0.5085    13.4150     1.4571 C.ar    
  32 C32           -8.8360    -4.5068    -2.4379 C.ar    
  33 C33           -9.6471    -3.5230    -2.9719 C.ar    
  34 C34           -9.6657    -2.2611    -2.4080 C.ar    
  35 C35           -8.8761    -1.9840    -1.3077 C.ar    
  36 S36          -10.6993    -1.0070    -3.0889 S.o2    
  37 C37          -12.2693    -1.1807    -2.1971 C.3     
  38 S38            4.2421    15.2469     3.2445 S.o2    
  39 C39            4.4301    16.8275     2.3744 C.3     
  40 O40            3.9077    15.4651     4.6082 O.2     
  41 O41            5.2823    14.3501     2.8797 O.2     
  42 O42          -10.0556     0.2089    -2.7332 O.2     
  43 O43          -10.8550    -1.3823    -4.4506 O.2     
  44 H44           -0.5459     1.8868    -0.8726 H       
  45 H45           -0.5289     1.8773     0.9072 H       
  46 H46            0.5123    -0.3556    -0.8948 H       
  47 H47            0.5293    -0.3651     0.8851 H       
  48 H48            0.9072     4.2439     0.9062 H       
  49 H49            0.8903     4.2535    -0.8736 H       
  50 H50            3.3849     4.3408     0.8831 H       
  51 H51            3.3679     4.3503    -0.8968 H       
  52 H52           -5.0964    -1.9059     1.8058 H       
  53 H53            2.1158    10.0612    -1.7295 H       
  54 H54            2.7011    12.5636    -0.9184 H       
  55 H55            0.9355    12.3388    -0.9037 H       
  56 H56           -7.0615    -3.5694     1.0095 H       
  57 H57           -7.6776    -1.8996     1.0312 H       
  58 H58            3.8491    13.5105     0.9999 H       
  59 H59           -7.4093    -4.9971    -0.9231 H       
  60 H60            1.4796    15.4315     3.9806 H       
  61 H61           -0.5511    14.4334     3.0096 H       
  62 H62           -0.3822    12.9772     1.0312 H       
  63 H63           -8.8215    -5.4928    -2.8785 H       
  64 H64          -10.2661    -3.7403    -3.8298 H       
  65 H65           -8.8906    -0.9981    -0.8671 H       
  66 H66          -12.0996    -1.0334    -1.1305 H       
  67 H67          -12.9771    -0.4348    -2.5588 H       
  68 H68          -12.6747    -2.1783    -2.3661 H       
  69 H69            3.5494    17.4454     2.5492 H       
  70 H70            5.3156    17.3435     2.7456 H       
  71 H71            4.5384    16.6432     1.3055 H       
@<TRIPOS>BOND
   1    1    2 1
   2    1   27 1
   3    1   44 1
   4    1   45 1
   5    2    6 1
   6    2   46 1
   7    2   47 1
   8    3    4 1
   9    3   27 1
  10    3   48 1
  11    3   49 1
  12    4    5 1
  13    4   50 1
  14    4   51 1
  15    5    7 1
  16    5   10 2
  17    6   11 1
  18    6   12 2
  19    7    8 1
  20    8    9 2
  21    8   18 1
  22    9   10 1
  23   11   14 1
  24   12   13 1
  25   13   14 2
  26   14   15 1
  27   15   16 am
  28   15   52 1
  29   16   17 2
  30   16   22 1
  31   18   19 am
  32   18   53 1
  33   19   20 1
  34   19   21 2
  35   20   23 1
  36   20   54 1
  37   20   55 1
  38   22   24 1
  39   22   56 1
  40   22   57 1
  41   23   25 ar
  42   23   31 ar
  43   24   26 ar
  44   24   35 ar
  45   25   28 ar
  46   25   58 1
  47   26   32 ar
  48   26   59 1
  49   28   29 ar
  50   28   38 1
  51   29   30 ar
  52   29   60 1
  53   30   31 ar
  54   30   61 1
  55   31   62 1
  56   32   33 ar
  57   32   63 1
  58   33   34 ar
  59   33   64 1
  60   34   35 ar
  61   34   36 1
  62   35   65 1
  63   36   37 1
  64   36   42 2
  65   36   43 2
  66   37   66 1
  67   37   67 1
  68   37   68 1
  69   38   39 1
  70   38   40 2
  71   38   41 2
  72   39   69 1
  73   39   70 1
  74   39   71 1

#	End of record

