#	Name: ASD03910115
#	Creating user name:	WinNT
#	Creation time:	15. 06. 2019 20:47

#	Modifying user name:	WinNT
#	Modification time:	15. 06. 2019 20:47

#	Program:	/corina/corina34_cracker 3.40 0067  02.08.2006

@<TRIPOS>MOLECULE
ASD03910115
  47   48    0    0    0
SMALL
NO_CHARGES


@<TRIPOS>ATOM
   1 C1            -0.0187     1.5258     0.0104 C.3     
   2 O2            -2.7532    -2.5581     0.0146 O.3     
   3 C3            -2.9124    -3.9030     0.0089 C.ar    
   4 C4            -4.2035    -4.4572     0.0183 C.ar    
   5 C5            -4.3622    -5.8403     0.0123 C.ar    
   6 C6            -3.2366    -6.6663    -0.0028 C.ar    
   7 C7            -1.9534    -6.1010    -0.0121 C.ar    
   8 C8            -1.7987    -4.7341    -0.0119 C.ar    
   9 C9            -3.3966    -8.1266    -0.0087 C.2     
  10 O10           -2.4185    -8.8438    -0.0219 O.2     
  11 C11           -5.3864    -3.5770     0.0348 C.2     
  12 O12           -5.2455    -2.3701     0.0403 O.2     
  13 O13           -6.6235    -4.1109     0.0437 O.3     
  14 O14            1.3973     3.4842     0.0074 O.3     
  15 C15            2.5979     4.1166    -0.0006 C.ar    
  16 C16            2.6495     5.5058     0.0063 C.ar    
  17 C17            3.8655     6.1515    -0.0018 C.ar    
  18 C18            5.0493     5.4080    -0.0166 C.ar    
  19 C19            4.9928     4.0112    -0.0231 C.ar    
  20 C20            3.7727     3.3735    -0.0100 C.ar    
  21 C21            0.0021    -0.0041     0.0020 C.3     
  22 C22           -1.4333    -0.5336     0.0129 C.3     
  23 C23           -1.4126    -2.0635     0.0045 C.3     
  24 C24            1.4167     2.0553    -0.0004 C.3     
  25 C25            6.3540     6.0953    -0.0259 C.2     
  26 O26            6.4011     7.3095    -0.0206 O.2     
  27 O27            7.4939     5.3769    -0.0402 O.3     
  28 H28           -0.5459     1.8868    -0.8726 H       
  29 H29           -0.5289     1.8773     0.9072 H       
  30 H30           -5.3519    -6.2726     0.0198 H       
  31 H31           -1.0835    -6.7410    -0.0238 H       
  32 H32           -0.8076    -4.3050    -0.0239 H       
  33 H33           -4.3851    -8.5616    -0.0012 H       
  34 H34           -7.3679    -3.4938     0.0545 H       
  35 H35            1.7345     6.0794     0.0178 H       
  36 H36            3.9048     7.2307     0.0029 H       
  37 H37            5.9050     3.4332    -0.0350 H       
  38 H38            3.7282     2.2944    -0.0109 H       
  39 H39            0.5123    -0.3556    -0.8948 H       
  40 H40            0.5293    -0.3651     0.8851 H       
  41 H41           -1.9435    -0.1821     0.9097 H       
  42 H42           -1.9605    -0.1726    -0.8702 H       
  43 H43           -0.8854    -2.4246     0.8875 H       
  44 H44           -0.9024    -2.4150    -0.8923 H       
  45 H45            1.9439     1.6943     0.8826 H       
  46 H46            1.9269     1.7038    -0.8972 H       
  47 H47            8.3246     5.8718    -0.0458 H       
@<TRIPOS>BOND
   1    1   21 1
   2    1   24 1
   3    1   28 1
   4    1   29 1
   5    2    3 1
   6    2   23 1
   7    3    4 ar
   8    3    8 ar
   9    4    5 ar
  10    4   11 1
  11    5    6 ar
  12    5   30 1
  13    6    7 ar
  14    6    9 1
  15    7    8 ar
  16    7   31 1
  17    8   32 1
  18    9   10 2
  19    9   33 1
  20   11   12 2
  21   11   13 1
  22   13   34 1
  23   14   15 1
  24   14   24 1
  25   15   16 ar
  26   15   20 ar
  27   16   17 ar
  28   16   35 1
  29   17   18 ar
  30   17   36 1
  31   18   19 ar
  32   18   25 1
  33   19   20 ar
  34   19   37 1
  35   20   38 1
  36   21   22 1
  37   21   39 1
  38   21   40 1
  39   22   23 1
  40   22   41 1
  41   22   42 1
  42   23   43 1
  43   23   44 1
  44   24   45 1
  45   24   46 1
  46   25   26 2
  47   25   27 1
  48   27   47 1

#	End of record

