#	Name: ASD01140094
#	Creating user name:	WinNT
#	Creation time:	15. 06. 2019 18:59

#	Modifying user name:	WinNT
#	Modification time:	15. 06. 2019 18:59

#	Program:	/corina/corina34_cracker 3.40 0067  02.08.2006

@<TRIPOS>MOLECULE
ASD01140094
  50   54    0    0    0
SMALL
NO_CHARGES


@<TRIPOS>ATOM
   1 C1            -0.0189     1.5415     0.0105 C.3     
   2 C2             0.0021    -0.0041     0.0020 C.3     
   3 C3            -1.2313    -0.3506     0.8655 C.3     
   4 C4            -1.5805     0.9386     1.5768 C.2     
   5 O5            -0.6910     1.8893     1.2571 O.3     
   6 C6             1.4073     2.0953    -0.0001 C.3     
   7 H7            -0.5794     1.9193    -0.8446 H       
   8 N8             2.1603     1.5263     1.1228 N.am    
   9 C9             1.8774     2.0605     2.4654 C.3     
  10 C10            2.2921     3.5309     2.4825 C.3     
  11 C11            1.7623     4.2517     1.2710 C.ar    
  12 C12            1.3635     3.5973     0.1273 C.ar    
  13 C13            1.6820     5.6379     1.3300 C.ar    
  14 C14            1.2127     6.3601     0.2530 C.ar    
  15 C15            0.8194     5.7019    -0.8975 C.ar    
  16 C16            0.8958     4.3258    -0.9582 C.ar    
  17 O17           -2.5200     1.0885     2.3216 O.2     
  18 H18            1.8943     1.8254    -0.9372 H       
  19 S19            3.2827     0.3311     0.8900 S.o2    
  20 O20            3.4029    -0.3534     2.1295 O.2     
  21 O21            2.9326    -0.3171    -0.3251 O.2     
  22 C22            4.8325     1.1195     0.6047 C.ar    
  23 C23            5.6451     1.4022     1.6597 C.ar    
  24 C24            6.8816     2.0307     1.4358 C.ar    
  25 C25            7.2634     2.3610     0.1113 C.ar    
  26 C26            6.3981     2.0535    -0.9521 C.ar    
  27 C27            5.2104     1.4390    -0.6977 C.ar    
  28 C28            7.7471     2.3390     2.4994 C.ar    
  29 C29            8.9368     2.9485     2.2443 C.ar    
  30 C30            9.3121     3.2736     0.9420 C.ar    
  31 C31            8.5001     2.9901    -0.1127 C.ar    
  32 H32           -0.1131    -0.3884    -1.0115 H       
  33 H33            0.9157    -0.3825     0.4604 H       
  34 H34           -2.0591    -0.6713     0.2331 H       
  35 H35           -0.9820    -1.1273     1.5885 H       
  36 H36            0.8119     1.9753     2.6792 H       
  37 H37            2.4491     1.5073     3.2105 H       
  38 H38            1.8981     4.0040     3.3819 H       
  39 H39            3.3801     3.5964     2.4912 H       
  40 H40            1.9896     6.1541     2.2274 H       
  41 H41            1.1523     7.4370     0.3082 H       
  42 H42            0.4536     6.2626    -1.7450 H       
  43 H43            0.5892     3.8112    -1.8568 H       
  44 H44            5.3408     1.1449     2.6635 H       
  45 H45            6.6757     2.2995    -1.9664 H       
  46 H46            4.5472     1.2034    -1.5169 H       
  47 H47            7.4693     2.0937     3.5138 H       
  48 H48            9.6000     3.1843     3.0635 H       
  49 H49           10.2617     3.7573     0.7671 H       
  50 H50            8.8044     3.2472    -1.1165 H       
@<TRIPOS>BOND
   1    1    2 1
   2    1    6 1
   3    1    7 1
   4    1    5 1
   5    2    3 1
   6    2   32 1
   7    2   33 1
   8    3    4 1
   9    3   34 1
  10    3   35 1
  11    4    5 1
  12    4   17 2
  13    6    8 1
  14    6   18 1
  15    6   12 1
  16    8    9 1
  17    8   19 am
  18    9   10 1
  19    9   36 1
  20    9   37 1
  21   10   11 1
  22   10   38 1
  23   10   39 1
  24   11   12 ar
  25   11   13 ar
  26   12   16 ar
  27   13   14 ar
  28   13   40 1
  29   14   15 ar
  30   14   41 1
  31   15   16 ar
  32   15   42 1
  33   16   43 1
  34   19   20 2
  35   19   21 2
  36   19   22 1
  37   22   23 ar
  38   22   27 ar
  39   23   24 ar
  40   23   44 1
  41   24   25 ar
  42   24   28 ar
  43   25   26 ar
  44   25   31 ar
  45   26   27 ar
  46   26   45 1
  47   27   46 1
  48   28   29 ar
  49   28   47 1
  50   29   30 ar
  51   29   48 1
  52   30   31 ar
  53   30   49 1
  54   31   50 1

#	End of record

