#	Name: ASD01813787
#	Creating user name:	WinNT
#	Creation time:	15. 06. 2019 19:31

#	Modifying user name:	WinNT
#	Modification time:	15. 06. 2019 19:31

#	Program:	/corina/corina34_cracker 3.40 0067  02.08.2006

@<TRIPOS>MOLECULE
ASD01813787
  48   51    0    0    0
SMALL
NO_CHARGES


@<TRIPOS>ATOM
   1 C1            -0.0169     1.3972     0.0097 C.2     
   2 C2             0.0021    -0.0041     0.0020 C.2     
   3 C3             1.1986    -0.6593    -0.0129 C.2     
   4 C4             2.3918     0.0821    -0.0204 C.2     
   5 N5             2.3438     1.4497    -0.0122 N.am    
   6 C6             1.1421     2.0936     0.0024 C.2     
   7 C7             3.6227    -0.5889    -0.0356 C.2     
   8 C8             4.7877     0.1218    -0.0430 C.2     
   9 C9             4.7345     1.5280    -0.0351 C.2     
  10 C10            3.4812     2.1736    -0.0189 C.2     
  11 O11            3.4258     3.3917    -0.0123 O.2     
  12 C12            5.9703     2.3140    -0.0422 C.2     
  13 O13            7.0487     1.7516    -0.0551 O.2     
  14 O14            5.9124     3.6618    -0.0346 O.3     
  15 C15            3.6593    -2.0954    -0.0434 C.3     
  16 N16            3.7785    -2.5752    -1.4268 N.3     
  17 C17            4.0547    -4.0181    -1.4618 C.3     
  18 C18            4.0925    -4.4924    -2.9165 C.3     
  19 N19            5.1249    -3.7436    -3.6465 N.3     
  20 C20            4.8487    -2.3006    -3.6115 C.3     
  21 C21            4.8109    -1.8263    -2.1568 C.3     
  22 C22            5.2382    -4.1997    -4.9618 C.ar    
  23 C23            6.1619    -3.6203    -5.8224 C.ar    
  24 C24            6.2717    -4.0740    -7.1221 C.ar    
  25 C25            5.4634    -5.1040    -7.5671 C.ar    
  26 C26            4.5428    -5.6831    -6.7130 C.ar    
  27 C27            4.4315    -5.2377    -5.4105 C.ar    
  28 H28           -0.9605     1.9226     0.0170 H       
  29 H29           -0.9233    -0.5609     0.0082 H       
  30 H30            1.2282    -1.7389    -0.0187 H       
  31 H31            1.1156     3.1733     0.0091 H       
  32 H32            5.7392    -0.3889    -0.0544 H       
  33 H33            6.7544     4.1373    -0.0398 H       
  34 H34            4.5154    -2.4410     0.5360 H       
  35 H35            2.7413    -2.4834     0.3979 H       
  36 H36            5.0172    -4.2157    -0.9898 H       
  37 H37            3.2700    -4.5517    -0.9256 H       
  38 H38            4.3259    -5.5567    -2.9460 H       
  39 H39            3.1215    -4.3197    -3.3806 H       
  40 H40            5.6334    -1.7670    -4.1477 H       
  41 H41            3.8863    -2.1031    -4.0835 H       
  42 H42            4.5775    -0.7620    -2.1273 H       
  43 H43            5.7819    -1.9990    -1.6927 H       
  44 H44            6.7932    -2.8155    -5.4756 H       
  45 H45            6.9893    -3.6237    -7.7919 H       
  46 H46            5.5510    -5.4568    -8.5841 H       
  47 H47            3.9131    -6.4874    -7.0637 H       
  48 H48            3.7126    -5.6907    -4.7438 H       
@<TRIPOS>BOND
   1    1    2 1
   2    1    6 2
   3    1   28 1
   4    2    3 2
   5    2   29 1
   6    3    4 1
   7    3   30 1
   8    4    5 1
   9    4    7 2
  10    5    6 1
  11    5   10 am
  12    6   31 1
  13    7    8 1
  14    7   15 1
  15    8    9 2
  16    8   32 1
  17    9   10 1
  18    9   12 1
  19   10   11 2
  20   12   13 2
  21   12   14 1
  22   14   33 1
  23   15   16 1
  24   15   34 1
  25   15   35 1
  26   16   17 1
  27   16   21 1
  28   17   18 1
  29   17   36 1
  30   17   37 1
  31   18   19 1
  32   18   38 1
  33   18   39 1
  34   19   20 1
  35   19   22 1
  36   20   21 1
  37   20   40 1
  38   20   41 1
  39   21   42 1
  40   21   43 1
  41   22   23 ar
  42   22   27 ar
  43   23   24 ar
  44   23   44 1
  45   24   25 ar
  46   24   45 1
  47   25   26 ar
  48   25   46 1
  49   26   27 ar
  50   26   47 1
  51   27   48 1

#	End of record

