#	Name: ASD08070283
#	Creating user name:	WinNT
#	Creation time:	15. 06. 2019 21:14

#	Modifying user name:	WinNT
#	Modification time:	15. 06. 2019 21:14

#	Program:	/corina/corina34_cracker 3.40 0067  02.08.2006

@<TRIPOS>MOLECULE
ASD08070283
  49   50    0    0    0
SMALL
NO_CHARGES


@<TRIPOS>ATOM
   1 C1            -0.0182     1.4903     0.0102 C.2     
   2 C2             0.0021    -0.0041     0.0020 C.2     
   3 O3             1.0244     2.1113     0.0036 O.2     
   4 N4            -1.1944     2.1482     0.0194 N.am    
   5 O5            -1.0405    -0.6251     0.0086 O.2     
   6 N6             1.1783    -0.6620    -0.0127 N.am    
   7 C7             1.1981    -2.1268    -0.0208 C.3     
   8 C8             2.6473    -2.6171    -0.0373 C.3     
   9 C9             2.6681    -4.1470    -0.0457 C.3     
  10 C10            4.0955    -4.6299    -0.0619 C.ar    
  11 C11            4.5311    -5.5070     0.9136 C.ar    
  12 C12            5.8459    -5.9455     0.8894 C.ar    
  13 C13            6.6773    -5.4834    -0.1197 C.ar    
  14 C14            6.1712    -4.6074    -1.0609 C.ar    
  15 N15            4.9130    -4.2152    -1.0096 N.ar    
  16 C16           -1.2143     3.6131     0.0274 C.3     
  17 C17           -2.6418     4.0960     0.0368 C.ar    
  18 C18           -3.3599     4.1141     1.2244 C.ar    
  19 C19           -4.6728     4.5584     1.2324 C.ar    
  20 C20           -5.2655     4.9839     0.0533 C.ar    
  21 C21           -4.5434     4.9640    -1.1313 C.ar    
  22 C22           -3.2327     4.5258    -1.1356 C.ar    
  23 O23           -6.5527     5.4197     0.0579 O.3     
  24 C24           -7.0988     5.8430    -1.1930 C.3     
  25 O25           -2.7764     3.6960     2.3784 O.3     
  26 C26           -3.5747     3.7419     3.5627 C.3     
  27 H27           -2.0278     1.6519     0.0206 H       
  28 H28            2.0116    -0.1656    -0.0180 H       
  29 H29            0.6978    -2.5019     0.8720 H       
  30 H30            0.6808    -2.4923    -0.9079 H       
  31 H31            3.1477    -2.2421    -0.9301 H       
  32 H32            3.1647    -2.2516     0.8498 H       
  33 H33            2.1677    -4.5220     0.8471 H       
  34 H34            2.1508    -4.5125    -0.9327 H       
  35 H35            3.8557    -5.8461     1.6852 H       
  36 H36            6.2142    -6.6305     1.6388 H       
  37 H37            7.7075    -5.8039    -0.1692 H       
  38 H38            6.8122    -4.2429    -1.8499 H       
  39 H39           -0.7012     3.9785     0.9170 H       
  40 H40           -0.7097     3.9882    -0.8629 H       
  41 H41           -5.2334     4.5728     2.1555 H       
  42 H42           -5.0046     5.2953    -2.0500 H       
  43 H43           -2.6709     4.5152    -2.0579 H       
  44 H44           -6.5101     6.6727    -1.5842 H       
  45 H45           -7.0728     5.0138    -1.9000 H       
  46 H46           -8.1300     6.1653    -1.0488 H       
  47 H47           -2.9900     3.3819     4.4092 H       
  48 H48           -3.8896     4.7686     3.7490 H       
  49 H49           -4.4535     3.1101     3.4332 H       
@<TRIPOS>BOND
   1    1    2 1
   2    1    3 2
   3    1    4 am
   4    2    5 2
   5    2    6 am
   6    4   16 1
   7    4   27 1
   8    6    7 1
   9    6   28 1
  10    7    8 1
  11    7   29 1
  12    7   30 1
  13    8    9 1
  14    8   31 1
  15    8   32 1
  16    9   10 1
  17    9   33 1
  18    9   34 1
  19   10   11 ar
  20   10   15 ar
  21   11   12 ar
  22   11   35 1
  23   12   13 ar
  24   12   36 1
  25   13   14 ar
  26   13   37 1
  27   14   15 ar
  28   14   38 1
  29   16   17 1
  30   16   39 1
  31   16   40 1
  32   17   18 ar
  33   17   22 ar
  34   18   19 ar
  35   18   25 1
  36   19   20 ar
  37   19   41 1
  38   20   21 ar
  39   20   23 1
  40   21   22 ar
  41   21   42 1
  42   22   43 1
  43   23   24 1
  44   24   44 1
  45   24   45 1
  46   24   46 1
  47   25   26 1
  48   26   47 1
  49   26   48 1
  50   26   49 1

#	End of record

