#	Name: ASD00170558
#	Creating user name:	WinNT
#	Creation time:	15. 06. 2019 18:32

#	Modifying user name:	WinNT
#	Modification time:	15. 06. 2019 18:32

#	Program:	/corina/corina34_cracker 3.40 0067  02.08.2006

@<TRIPOS>MOLECULE
ASD00170558
  51   55    0    0    0
SMALL
NO_CHARGES


@<TRIPOS>ATOM
   1 C1            -0.5916     1.9725     0.0278 C.3     
   2 C2            -0.4877     0.4551    -0.0930 C.3     
   3 C3             0.2556    -0.1007     1.1250 C.3     
   4 N4            -0.4592     0.2803     2.3500 N.3     
   5 C5            -0.5038     1.7393     2.5095 C.3     
   6 C6            -1.2716     2.3577     1.3377 C.3     
   7 C7             0.1385    -0.3602     3.5291 C.3     
   8 C8            -0.4540     0.2368     4.7796 C.2     
   9 C9             0.1536     1.1643     5.5029 C.2     
  10 S10           -0.8268     1.6243     6.8833 S.3     
  11 C11           -2.0698     0.5378     6.4597 C.2     
  12 C12           -1.7478    -0.1417     5.3077 C.2     
  13 C13           -2.6140    -1.1451     4.6892 C.2     
  14 O14           -3.4067    -0.8159     3.8254 O.2     
  15 C15           -2.5271    -2.5592     5.1129 C.ar    
  16 C16           -3.4250    -3.4995     4.6045 C.ar    
  17 C17           -3.3388    -4.8169     5.0029 C.ar    
  18 C18           -2.3640    -5.2077     5.9060 C.ar    
  19 C19           -1.4706    -4.2792     6.4142 C.ar    
  20 C20           -1.5431    -2.9602     6.0184 C.ar    
  21 N21           -3.2403     0.3675     7.1709 N.pl3   
  22 Cl22          -2.2619    -6.8679     6.4033 Cl      
  23 O23            0.7091     2.5711    -0.0579 O.3     
  24 C24            0.5217     3.7527    -0.7183 C.ar    
  25 C25           -0.7181     3.7187    -1.3502 C.ar    
  26 O26           -1.3100     2.5156    -1.0886 O.3     
  27 C27            1.3248     4.8777    -0.8348 C.ar    
  28 C28            0.8919     5.9627    -1.5772 C.ar    
  29 C29           -0.3402     5.9277    -2.2036 C.ar    
  30 C30           -1.1445     4.8092    -2.0917 C.ar    
  31 F31            2.5290     4.9146    -0.2234 F       
  32 H32           -1.4881     0.0244    -0.1364 H       
  33 H33            0.0587     0.1990    -1.0006 H       
  34 H34            0.3046    -1.1874     1.0560 H       
  35 H35            1.2658     0.3078     1.1518 H       
  36 H36           -1.0062     1.9874     3.4445 H       
  37 H37            0.5120     2.1341     2.5270 H       
  38 H38           -1.2775     3.4429     1.4390 H       
  39 H39           -2.2965     1.9865     1.3382 H       
  40 H40           -0.0671    -1.4303     3.5047 H       
  41 H41            1.2163    -0.1971     3.5240 H       
  42 H42            1.1230     1.5817     5.2742 H       
  43 H43           -4.1859    -3.1958     3.9008 H       
  44 H44           -4.0329    -5.5452     4.6103 H       
  45 H45           -0.7128    -4.5897     7.1183 H       
  46 H46           -0.8458    -2.2372     6.4151 H       
  47 H47           -3.3663     0.8285     8.0150 H       
  48 H48           -3.9368    -0.2132     6.8267 H       
  49 H49            1.5176     6.8384    -1.6672 H       
  50 H50           -0.6748     6.7762    -2.7818 H       
  51 H51           -2.1061     4.7850    -2.5827 H       
@<TRIPOS>BOND
   1    1    2 1
   2    1   23 1
   3    1    6 1
   4    1   26 1
   5    2    3 1
   6    2   32 1
   7    2   33 1
   8    3    4 1
   9    3   34 1
  10    3   35 1
  11    4    5 1
  12    4    7 1
  13    5    6 1
  14    5   36 1
  15    5   37 1
  16    6   38 1
  17    6   39 1
  18    7    8 1
  19    7   40 1
  20    7   41 1
  21    8    9 2
  22    8   12 1
  23    9   10 1
  24    9   42 1
  25   10   11 1
  26   11   12 2
  27   11   21 1
  28   12   13 1
  29   13   14 2
  30   13   15 1
  31   15   16 ar
  32   15   20 ar
  33   16   17 ar
  34   16   43 1
  35   17   18 ar
  36   17   44 1
  37   18   19 ar
  38   18   22 1
  39   19   20 ar
  40   19   45 1
  41   20   46 1
  42   21   47 1
  43   21   48 1
  44   23   24 1
  45   24   25 ar
  46   24   27 ar
  47   25   26 1
  48   25   30 ar
  49   27   28 ar
  50   27   31 1
  51   28   29 ar
  52   28   49 1
  53   29   30 ar
  54   29   50 1
  55   30   51 1

#	End of record

