#	Name: ASD01881726
#	Creating user name:	WinNT
#	Creation time:	15. 06. 2019 19:43

#	Modifying user name:	WinNT
#	Modification time:	15. 06. 2019 19:43

#	Program:	/corina/corina34_cracker 3.40 0067  02.08.2006

@<TRIPOS>MOLECULE
ASD01881726
  45   48    0    0    0
SMALL
NO_CHARGES


@<TRIPOS>ATOM
   1 N1             0.0445     1.1978    -0.7507 N.pl3   
   2 N2             0.0357    -0.0524    -0.4407 N.2     
   3 N3             1.2109    -0.4760    -0.1327 N.2     
   4 C4             2.0905     0.5408    -0.2346 C.ar    
   5 C5             1.3353     1.6566    -0.6427 C.ar    
   6 C6             3.4664     0.6768    -0.0311 C.ar    
   7 C7             4.0649     1.9047    -0.2335 C.ar    
   8 C8             3.3067     3.0011    -0.6373 C.ar    
   9 C9             1.9602     2.8810    -0.8405 C.ar    
  10 O10            5.4033     2.0444    -0.0370 O.3     
  11 N11            7.9424     5.2409    -0.8311 N.am    
  12 C12            7.7832     4.8843     0.5853 C.3     
  13 C13            7.2288     3.4590     0.6756 C.3     
  14 C14            5.9405     3.3642    -0.1452 C.3     
  15 C15            6.2450     3.6720    -1.6130 C.3     
  16 C16            6.7883     5.0996    -1.7292 C.3     
  17 C17            9.1232     5.6945    -1.2964 C.2     
  18 O18           10.0670     5.8115    -0.5438 O.2     
  19 C19            9.2707     6.0562    -2.7519 C.3     
  20 F20           10.5761     6.4979    -2.9927 F       
  21 F21            9.0058     4.9318    -3.5410 F       
  22 F22            8.3670     7.0748    -3.0732 F       
  23 C23           -1.1188     1.9915    -1.1545 C.3     
  24 C24           -1.7677     2.6120     0.0843 C.3     
  25 C25           -2.9342     3.5769    -0.1376 C.3     
  26 C26           -3.1946     2.1787     0.4265 C.3     
  27 Br27           4.5001    -0.8085     0.5177 Br      
  28 H28            3.7874     3.9558    -0.7917 H       
  29 H29            1.3826     3.7380    -1.1538 H       
  30 H30            8.7506     4.9324     1.0852 H       
  31 H31            7.0890     5.5772     1.0608 H       
  32 H32            7.9637     2.7572     0.2815 H       
  33 H33            7.0155     3.2169     1.7167 H       
  34 H34            5.2148     4.0839     0.2336 H       
  35 H35            6.9892     2.9681    -1.9856 H       
  36 H36            5.3316     3.5813    -2.2008 H       
  37 H37            6.0130     5.8101    -1.4425 H       
  38 H38            7.0992     5.2898    -2.7565 H       
  39 H39           -0.8008     2.7829    -1.8331 H       
  40 H40           -1.8400     1.3484    -1.6589 H       
  41 H41           -1.0924     2.8213     0.9139 H       
  42 H42           -3.0265     4.4206     0.5463 H       
  43 H43           -3.2394     3.7695    -1.1661 H       
  44 H44           -3.6710     1.4514    -0.2310 H       
  45 H45           -3.4582     2.1026     1.4814 H       
@<TRIPOS>BOND
   1    1    2 1
   2    1    5 1
   3    1   23 1
   4    2    3 2
   5    3    4 1
   6    4    5 ar
   7    4    6 ar
   8    5    9 ar
   9    6    7 ar
  10    6   27 1
  11    7    8 ar
  12    7   10 1
  13    8    9 ar
  14    8   28 1
  15    9   29 1
  16   10   14 1
  17   11   12 1
  18   11   16 1
  19   11   17 am
  20   12   13 1
  21   12   30 1
  22   12   31 1
  23   13   14 1
  24   13   32 1
  25   13   33 1
  26   14   15 1
  27   14   34 1
  28   15   16 1
  29   15   35 1
  30   15   36 1
  31   16   37 1
  32   16   38 1
  33   17   18 2
  34   17   19 1
  35   19   20 1
  36   19   21 1
  37   19   22 1
  38   23   24 1
  39   23   39 1
  40   23   40 1
  41   24   25 1
  42   24   26 1
  43   24   41 1
  44   25   26 1
  45   25   42 1
  46   25   43 1
  47   26   44 1
  48   26   45 1

#	End of record

