#	Name: ASD05130100
#	Creating user name:	WinNT
#	Creation time:	15. 06. 2019 20:56

#	Modifying user name:	WinNT
#	Modification time:	15. 06. 2019 20:56

#	Program:	/corina/corina34_cracker 3.40 0067  02.08.2006

@<TRIPOS>MOLECULE
ASD05130100
  57   60    0    0    0
SMALL
NO_CHARGES


@<TRIPOS>ATOM
   1 C1            -2.2711     1.4530     0.1145 C.2     
   2 C2            -2.2397    -0.0537     0.1190 C.3     
   3 O3            -3.3336     2.0374     0.1239 O.2     
   4 N4            -1.1181     2.1510     0.1058 N.am    
   5 N5             1.1497     6.3887     0.0785 N.am    
   6 C6             1.1001     7.7308    -0.0309 C.2     
   7 C7            -0.1812     8.4067    -0.2499 C.2     
   8 C8            -1.3275     7.6660    -0.3427 C.2     
   9 C9            -1.2489     6.2576    -0.2245 C.ar    
  10 C10           -2.3966     5.4602    -0.3136 C.ar    
  11 N11           -2.3058     4.1530    -0.2016 N.ar    
  12 C12           -1.1453     3.5383    -0.0036 C.ar    
  13 C13            0.0396     4.2511     0.0969 C.ar    
  14 C14            0.0013     5.6370    -0.0138 C.ar    
  15 O15            2.1244     8.3847     0.0531 O.2     
  16 C16            2.4379     5.7242     0.2913 C.3     
  17 C17            2.7071     5.6025     1.7925 C.3     
  18 C18           -0.2351     9.8824    -0.3695 C.ar    
  19 C19            0.2002    10.5063    -1.5409 C.ar    
  20 C20            0.1489    11.8832    -1.6498 C.ar    
  21 C21           -0.3327    12.6463    -0.6003 C.ar    
  22 C22           -0.7675    12.0315     0.5695 C.ar    
  23 C23           -0.7256    10.6515     0.6843 C.ar    
  24 N24           -1.2537    12.8084     1.6303 N.am    
  25 C25           -2.2595    12.3456     2.3988 C.2     
  26 O26           -2.6900    11.2218     2.2249 O.2     
  27 N27           -2.7883    13.1285     3.3600 N.am    
  28 C28           -3.7664    12.6166     4.2199 C.ar    
  29 C29           -3.8086    13.0241     5.5468 C.ar    
  30 C30           -4.7752    12.5170     6.3930 C.ar    
  31 C31           -5.7000    11.6040     5.9204 C.ar    
  32 C32           -5.6607    11.1962     4.5996 C.ar    
  33 C33           -4.7004    11.7043     3.7468 C.ar    
  34 F34           -0.3802    13.9918    -0.7120 F       
  35 F35            0.6716     9.7643    -2.5667 F       
  36 C36           -3.6170    -0.5730     0.1352 C.1     
  37 N37           -4.6798    -0.9738     0.1477 N.1     
  38 H38           -1.7279    -0.4091    -0.7753 H       
  39 H39           -1.7091    -0.4034     1.0046 H       
  40 H40           -0.2695     1.6865     0.1757 H       
  41 H41           -2.2798     8.1493    -0.5037 H       
  42 H42           -3.3602     5.9206    -0.4746 H       
  43 H43            0.9766     3.7389     0.2587 H       
  44 H44            2.4120     4.7301    -0.1549 H       
  45 H45            3.2304     6.3106    -0.1736 H       
  46 H46            2.7330     6.5966     2.2388 H       
  47 H47            1.9146     5.0161     2.2574 H       
  48 H48            3.6655     5.1081     1.9509 H       
  49 H49            0.4857    12.3648    -2.5559 H       
  50 H50           -1.0675    10.1730     1.5902 H       
  51 H51           -0.8661    13.6790     1.8113 H       
  52 H52           -2.4908    14.0468     3.4558 H       
  53 H53           -3.0862    13.7366     5.9168 H       
  54 H54           -4.8086    12.8335     7.4250 H       
  55 H55           -6.4544    11.2084     6.5842 H       
  56 H56           -6.3843    10.4830     4.2335 H       
  57 H57           -4.6729    11.3888     2.7143 H       
@<TRIPOS>BOND
   1    1    2 1
   2    1    3 2
   3    1    4 am
   4    2   36 1
   5    2   38 1
   6    2   39 1
   7    4   12 1
   8    4   40 1
   9    5    6 am
  10    5   14 1
  11    5   16 1
  12    6    7 1
  13    6   15 2
  14    7    8 2
  15    7   18 1
  16    8    9 1
  17    8   41 1
  18    9   10 ar
  19    9   14 ar
  20   10   11 ar
  21   10   42 1
  22   11   12 ar
  23   12   13 ar
  24   13   14 ar
  25   13   43 1
  26   16   17 1
  27   16   44 1
  28   16   45 1
  29   17   46 1
  30   17   47 1
  31   17   48 1
  32   18   19 ar
  33   18   23 ar
  34   19   20 ar
  35   19   35 1
  36   20   21 ar
  37   20   49 1
  38   21   22 ar
  39   21   34 1
  40   22   23 ar
  41   22   24 1
  42   23   50 1
  43   24   25 am
  44   24   51 1
  45   25   26 2
  46   25   27 am
  47   27   28 1
  48   27   52 1
  49   28   29 ar
  50   28   33 ar
  51   29   30 ar
  52   29   53 1
  53   30   31 ar
  54   30   54 1
  55   31   32 ar
  56   31   55 1
  57   32   33 ar
  58   32   56 1
  59   33   57 1
  60   36   37 3

#	End of record

