#	Name: ASD01811175
#	Creating user name:	WinNT
#	Creation time:	15. 06. 2019 19:26

#	Modifying user name:	WinNT
#	Modification time:	15. 06. 2019 19:26

#	Program:	/corina/corina34_cracker 3.40 0067  02.08.2006

@<TRIPOS>MOLECULE
ASD01811175
  68   73    0    0    0
SMALL
NO_CHARGES


@<TRIPOS>ATOM
   1 C1            -0.2169     1.5362    -2.3668 C.3     
   2 C2            -0.1962     0.0063    -2.3752 C.3     
   3 C3             0.7182    -0.4975    -1.2568 C.3     
   4 C4             0.1941    -0.0020     0.0925 C.3     
   5 C5             0.1734     1.5279     0.1010 C.3     
   6 C6            -0.7410     2.0317    -1.0175 C.3     
   7 F7            -1.4925    -0.4788    -2.1718 F       
   8 N8             0.7381    -1.9663    -1.2649 N.3     
   9 C9             1.2018    -2.4793    -2.5605 C.3     
  10 C10            1.0600    -4.0037    -2.5863 C.3     
  11 C11            1.8694    -4.6066    -1.4415 C.3     
  12 C12            1.4263    -4.0122    -0.1073 C.3     
  13 C13            1.5566    -2.4876    -0.1626 C.3     
  14 C14            1.7244    -6.1070    -1.4241 C.ar    
  15 C15            3.0027    -6.6211    -1.6123 C.ar    
  16 N16            3.9255    -5.5823    -1.7457 N.am    
  17 C17            3.3448    -4.3720    -1.6582 C.2     
  18 C18            0.6445    -6.9462    -1.2684 C.ar    
  19 C19            0.8254    -8.3183    -1.2974 C.ar    
  20 C20            2.0917    -8.8412    -1.4831 C.ar    
  21 C21            3.1764    -8.0029    -1.6398 C.ar    
  22 O22            3.9008    -3.2971    -1.7383 O.2     
  23 C23            5.3608    -5.7866    -1.9565 C.3     
  24 C24            5.6469    -5.8534    -3.4346 C.ar    
  25 C25            5.7388    -4.6849    -4.1737 C.ar    
  26 C26            6.0007    -4.7421    -5.5298 C.ar    
  27 C27            6.1723    -5.9767    -6.1514 C.ar    
  28 C28            6.0791    -7.1475    -5.4026 C.ar    
  29 C29            5.8224    -7.0800    -4.0478 C.ar    
  30 F30            5.5720    -3.4887    -3.5684 F       
  31 C31            6.4533    -6.0445    -7.6078 C.2     
  32 C32            6.6419    -7.1798    -8.3404 C.2     
  33 N33            6.8688    -6.8088    -9.6166 N.pl3   
  34 N34            6.8206    -5.4110    -9.6810 N.2     
  35 C35            6.5676    -4.9487    -8.4853 C.2     
  36 C36            7.1225    -7.7122   -10.7416 C.3     
  37 H37            0.7931     1.9141    -2.5253 H       
  38 H38           -0.8684     1.8951    -3.1636 H       
  39 H39            0.1772    -0.3467    -3.3365 H       
  40 H40            1.7282    -0.1195    -1.4153 H       
  41 H41           -0.8159    -0.3799     0.2510 H       
  42 H42            0.8456    -0.3609     0.8894 H       
  43 H43           -0.2000     1.8809     1.0622 H       
  44 H44            1.1834     1.9058    -0.0575 H       
  45 H45           -0.7558     3.1216    -1.0115 H       
  46 H46           -1.7510     1.6537    -0.8590 H       
  47 H47            0.6009    -2.0449    -3.3594 H       
  48 H48            2.2479    -2.2092    -2.7049 H       
  49 H49            0.0102    -4.2732    -2.4708 H       
  50 H50            1.4320    -4.3875    -3.5362 H       
  51 H51            0.3875    -4.2817     0.0838 H       
  52 H52            2.0565    -4.4024     0.6919 H       
  53 H53            2.6000    -2.2178    -0.3256 H       
  54 H54            1.2133    -2.0592     0.7791 H       
  55 H55           -0.3433    -6.5344    -1.1234 H       
  56 H56           -0.0204    -8.9786    -1.1748 H       
  57 H57            2.2328    -9.9118    -1.5050 H       
  58 H58            4.1623    -8.4190    -1.7850 H       
  59 H59            5.9143    -4.9572    -1.5164 H       
  60 H60            5.6682    -6.7197    -1.4844 H       
  61 H61            6.0717    -3.8315    -6.1061 H       
  62 H62            6.2111    -8.1068    -5.8807 H       
  63 H63            5.7504    -7.9878    -3.4671 H       
  64 H64            6.6147    -8.1925    -7.9659 H       
  65 H65            6.4695    -3.9075    -8.2156 H       
  66 H66            6.1768    -7.9802   -11.2128 H       
  67 H67            7.7631    -7.2147   -11.4698 H       
  68 H68            7.6163    -8.6138   -10.3794 H       
@<TRIPOS>BOND
   1    1    2 1
   2    1    6 1
   3    1   37 1
   4    1   38 1
   5    2    3 1
   6    2    7 1
   7    2   39 1
   8    3    4 1
   9    3    8 1
  10    3   40 1
  11    4    5 1
  12    4   41 1
  13    4   42 1
  14    5    6 1
  15    5   43 1
  16    5   44 1
  17    6   45 1
  18    6   46 1
  19    8    9 1
  20    8   13 1
  21    9   10 1
  22    9   47 1
  23    9   48 1
  24   10   11 1
  25   10   49 1
  26   10   50 1
  27   11   12 1
  28   11   14 1
  29   11   17 1
  30   12   13 1
  31   12   51 1
  32   12   52 1
  33   13   53 1
  34   13   54 1
  35   14   15 ar
  36   14   18 ar
  37   15   16 1
  38   15   21 ar
  39   16   17 am
  40   16   23 1
  41   17   22 2
  42   18   19 ar
  43   18   55 1
  44   19   20 ar
  45   19   56 1
  46   20   21 ar
  47   20   57 1
  48   21   58 1
  49   23   24 1
  50   23   59 1
  51   23   60 1
  52   24   25 ar
  53   24   29 ar
  54   25   26 ar
  55   25   30 1
  56   26   27 ar
  57   26   61 1
  58   27   28 ar
  59   27   31 1
  60   28   29 ar
  61   28   62 1
  62   29   63 1
  63   31   32 2
  64   31   35 1
  65   32   33 1
  66   32   64 1
  67   33   34 1
  68   33   36 1
  69   34   35 2
  70   35   65 1
  71   36   66 1
  72   36   67 1
  73   36   68 1

#	End of record

