#	Name: ASD01882311
#	Creating user name:	WinNT
#	Creation time:	15. 06. 2019 19:44

#	Modifying user name:	WinNT
#	Modification time:	15. 06. 2019 19:44

#	Program:	/corina/corina34_cracker 3.40 0067  02.08.2006

@<TRIPOS>MOLECULE
ASD01882311
  54   58    0    0    0
SMALL
NO_CHARGES


@<TRIPOS>ATOM
   1 C1             0.7418     1.4446    -1.2210 C.2     
   2 C2             1.1257     0.0924    -1.1938 C.2     
   3 C3             0.6396    -0.7191    -0.2041 C.2     
   4 C4            -0.2347    -0.1858     0.7673 C.2     
   5 C5            -0.5895     1.1134     0.7221 C.2     
   6 N6            -0.1108     1.9309    -0.2600 N.pl3   
   7 N7             0.4207     3.5148    -1.6198 N.2     
   8 N8             1.0351     2.4581    -2.0215 N.2     
   9 C9            -0.2882     3.2509    -0.5539 C.2     
  10 N10            1.0050    -2.0623    -0.1564 N.pl3   
  11 C11            2.3934    -2.4573     0.1259 C.3     
  12 C12            2.3852    -3.4889     1.2590 C.3     
  13 N13            1.4848    -4.5941     0.9043 N.3     
  14 C14            0.0984    -4.1286     0.7665 C.3     
  15 C15            0.0116    -3.1234    -0.3808 C.3     
  16 C16            1.5744    -5.6313     1.8355 C.ar    
  17 C17            0.9722    -5.5028     3.0807 C.ar    
  18 C18            1.0623    -6.5304     3.9989 C.ar    
  19 C19            1.7510    -7.6864     3.6798 C.ar    
  20 C20            2.3516    -7.8176     2.4412 C.ar    
  21 C21            2.2609    -6.7959     1.5163 C.ar    
  22 C22            3.8010    -4.0304     1.4668 C.3     
  23 C23            1.8969    -2.8266     2.5489 C.3     
  24 C24           -1.1433     4.2273     0.2119 C.3     
  25 C25           -0.3033     4.8947     1.3027 C.3     
  26 C26           -0.9614     6.0092     2.1186 C.3     
  27 C27           -0.7052     4.6427     2.7573 C.3     
  28 Cl28           2.2019    -0.5404    -2.4001 Cl      
  29 H29           -0.6213    -0.8218     1.5499 H       
  30 H30           -1.2594     1.5113     1.4701 H       
  31 H31            2.8375    -2.8976    -0.7669 H       
  32 H32            2.9681    -1.5828     0.4310 H       
  33 H33           -0.5515    -4.9783     0.5572 H       
  34 H34           -0.2176    -3.6478     1.6923 H       
  35 H35           -0.9877    -2.6890    -0.4105 H       
  36 H36            0.2223    -3.6289    -1.3232 H       
  37 H37            0.4345    -4.6001     3.3306 H       
  38 H38            0.5947    -6.4310     4.9673 H       
  39 H39            1.8203    -8.4884     4.3999 H       
  40 H40            2.8887    -8.7217     2.1952 H       
  41 H41            2.7265    -6.9008     0.5475 H       
  42 H42            4.4949    -3.1980     1.5832 H       
  43 H43            3.8248    -4.6513     2.3623 H       
  44 H44            4.0919    -4.6278     0.6027 H       
  45 H45            0.9197    -2.3750     2.3781 H       
  46 H46            1.8179    -3.5771     3.3354 H       
  47 H47            2.6054    -2.0557     2.8522 H       
  48 H48           -1.5250     4.9880    -0.4692 H       
  49 H49           -1.9786     3.6975     0.6697 H       
  50 H50            0.7601     4.9920     1.0836 H       
  51 H51           -0.3309     6.8395     2.4366 H       
  52 H52           -1.9928     6.2670     1.8782 H       
  53 H53           -1.5681     4.0015     2.9372 H       
  54 H54            0.0938     4.5740     3.4955 H       
@<TRIPOS>BOND
   1    1    2 1
   2    1    6 1
   3    1    8 2
   4    2    3 2
   5    2   28 1
   6    3    4 1
   7    3   10 1
   8    4    5 2
   9    4   29 1
  10    5    6 1
  11    5   30 1
  12    6    9 1
  13    7    8 1
  14    7    9 2
  15    9   24 1
  16   10   11 1
  17   10   15 1
  18   11   12 1
  19   11   31 1
  20   11   32 1
  21   12   13 1
  22   12   22 1
  23   12   23 1
  24   13   14 1
  25   13   16 1
  26   14   15 1
  27   14   33 1
  28   14   34 1
  29   15   35 1
  30   15   36 1
  31   16   17 ar
  32   16   21 ar
  33   17   18 ar
  34   17   37 1
  35   18   19 ar
  36   18   38 1
  37   19   20 ar
  38   19   39 1
  39   20   21 ar
  40   20   40 1
  41   21   41 1
  42   22   42 1
  43   22   43 1
  44   22   44 1
  45   23   45 1
  46   23   46 1
  47   23   47 1
  48   24   25 1
  49   24   48 1
  50   24   49 1
  51   25   26 1
  52   25   27 1
  53   25   50 1
  54   26   27 1
  55   26   51 1
  56   26   52 1
  57   27   53 1
  58   27   54 1

#	End of record

