#	Name: ASD09740373
#	Creating user name:	WinNT
#	Creation time:	15. 06. 2019 21:23

#	Modifying user name:	WinNT
#	Modification time:	15. 06. 2019 21:23

#	Program:	/corina/corina34_cracker 3.40 0067  02.08.2006

@<TRIPOS>MOLECULE
ASD09740373
  39   43    0    0    0
SMALL
NO_CHARGES


@<TRIPOS>ATOM
   1 S1            -0.0211     1.7061     0.0114 S.3     
   2 C2             0.0021    -0.0041     0.0020 C.2     
   3 C3             1.7387     1.7449    -0.0052 C.2     
   4 N4             2.1944     0.5237    -0.0161 N.2     
   5 C5             1.2842    -0.4288    -0.0125 C.2     
   6 C6             1.6427    -1.8685    -0.0232 C.ar    
   7 C7             2.5651     2.9638    -0.0073 C.2     
   8 C8             2.7631    -2.3050    -0.7276 C.ar    
   9 C9             3.0921    -3.6453    -0.7337 C.ar    
  10 C10            2.3120    -4.5549    -0.0427 C.ar    
  11 C11            1.1985    -4.1272     0.6578 C.ar    
  12 C12            0.8636    -2.7884     0.6759 C.ar    
  13 N13            2.1286     4.2111     0.0033 N.2     
  14 C14            3.2367     4.9809    -0.0030 C.2     
  15 N15            4.2711     4.1777    -0.0168 N.2     
  16 O16            3.9071     3.0209    -0.0144 O.3     
  17 C17            3.2760     6.4625     0.0039 C.ar    
  18 C18            2.0952     7.1935     0.0182 C.ar    
  19 C19            2.1285     8.5774     0.0252 C.ar    
  20 C20            3.3329     9.2513     0.0175 C.ar    
  21 C21            4.5265     8.5432     0.0032 C.ar    
  22 C22            4.5101     7.1389     0.0019 C.ar    
  23 N23            5.8586     8.9080    -0.0078 N.pl3   
  24 C24            6.5908     7.7623    -0.0204 C.2     
  25 N25            5.8010     6.7272    -0.0139 N.2     
  26 C26           -1.2136    -0.8947     0.0093 C.3     
  27 F27           -1.5770    -1.1769     1.3305 F       
  28 F28           -2.2711    -0.2455    -0.6368 F       
  29 F29           -0.9212    -2.0884    -0.6591 F       
  30 H30            3.3725    -1.5958    -1.2681 H       
  31 H31            3.9602    -3.9847    -1.2794 H       
  32 H32            2.5730    -5.6028    -0.0505 H       
  33 H33            0.5925    -4.8417     1.1951 H       
  34 H34           -0.0057    -2.4556     1.2235 H       
  35 H35            1.1455     6.6793     0.0236 H       
  36 H36            1.2036     9.1348     0.0363 H       
  37 H37            3.3466    10.3312     0.0224 H       
  38 H38            6.2070     9.8132    -0.0069 H       
  39 H39            7.6698     7.7175    -0.0316 H       
@<TRIPOS>BOND
   1    1    2 1
   2    1    3 1
   3    2   26 1
   4    2    5 2
   5    3    4 2
   6    3    7 1
   7    4    5 1
   8    5    6 1
   9    6    8 ar
  10    6   12 ar
  11    7   13 2
  12    7   16 1
  13    8    9 ar
  14    8   30 1
  15    9   10 ar
  16    9   31 1
  17   10   11 ar
  18   10   32 1
  19   11   12 ar
  20   11   33 1
  21   12   34 1
  22   13   14 1
  23   14   15 2
  24   14   17 1
  25   15   16 1
  26   17   18 ar
  27   17   22 ar
  28   18   19 ar
  29   18   35 1
  30   19   20 ar
  31   19   36 1
  32   20   21 ar
  33   20   37 1
  34   21   22 ar
  35   21   23 1
  36   22   25 1
  37   23   24 1
  38   23   38 1
  39   24   25 2
  40   24   39 1
  41   26   27 1
  42   26   28 1
  43   26   29 1

#	End of record

