#	Name: ASD04430072
#	Creating user name:	WinNT
#	Creation time:	15. 06. 2019 20:49

#	Modifying user name:	WinNT
#	Modification time:	15. 06. 2019 20:49

#	Program:	/corina/corina34_cracker 3.40 0067  02.08.2006

@<TRIPOS>MOLECULE
ASD04430072
  45   48    0    0    0
SMALL
NO_CHARGES


@<TRIPOS>ATOM
   1 N1             0.5045     1.7763    -0.5310 N.am    
   2 C2             0.3766     0.4351    -0.3696 C.2     
   3 N3             1.3949    -0.3720    -0.3048 N.2     
   4 C4             2.6578     0.0720    -0.3948 C.2     
   5 C5             2.8901     1.4464    -0.5637 C.2     
   6 C6             1.7322     2.3373    -0.6337 C.2     
   7 N7             3.8797    -0.5267    -0.3607 N.pl3   
   8 N8             4.8585     0.4645    -0.5067 N.2     
   9 C9             4.2842     1.6301    -0.6270 C.2     
  10 O10            1.8675     3.5393    -0.7798 O.2     
  11 C11           -1.0093    -0.1465    -0.2597 C.3     
  12 C12           -0.9134    -1.6634    -0.0843 C.3     
  13 C13            4.1176    -1.8984    -0.2053 C.ar    
  14 C14            3.4176    -2.8252    -0.9660 C.ar    
  15 N15            3.6382    -4.1168    -0.8224 N.ar    
  16 C16            4.5229    -4.5790     0.0392 C.ar    
  17 C17            5.2591    -3.7181     0.8323 C.ar    
  18 C18            5.0638    -2.3523     0.7104 C.ar    
  19 C19            5.8466    -1.3818     1.5568 C.3     
  20 C20           -2.3113    -2.2388     0.1519 C.3     
  21 C21           -2.2154    -3.7557     0.3273 C.3     
  22 C22           -1.6142    -4.3781    -0.9345 C.3     
  23 C23           -0.2163    -3.8026    -1.1707 C.3     
  24 C24           -0.3122    -2.2857    -1.3461 C.3     
  25 H25           -0.2872     2.3349    -0.5771 H       
  26 H26            4.7920     2.5747    -0.7540 H       
  27 H27           -1.5182     0.2873     0.6011 H       
  28 H28           -1.5711     0.0797    -1.1659 H       
  29 H29           -0.2776    -1.8907     0.7714 H       
  30 H30            2.6847    -2.4845    -1.6824 H       
  31 H31            4.6744    -5.6447     0.1270 H       
  32 H32            5.9812    -4.1060     1.5355 H       
  33 H33            6.7168    -1.0341     1.0002 H       
  34 H34            5.2150    -0.5310     1.8124 H       
  35 H35            6.1742    -1.8785     2.4701 H       
  36 H36           -2.7396    -1.7955     1.0508 H       
  37 H37           -2.9471    -2.0115    -0.7038 H       
  38 H38           -1.5796    -3.9831     1.1829 H       
  39 H39           -3.2113    -4.1657     0.4955 H       
  40 H40           -1.5459    -5.4587    -0.8095 H       
  41 H41           -2.2500    -4.1507    -1.7901 H       
  42 H42            0.4195    -4.0299    -0.3150 H       
  43 H43            0.2120    -4.2460    -2.0696 H       
  44 H44           -0.9480    -2.0584    -2.2017 H       
  45 H45            0.6836    -1.8758    -1.5143 H       
@<TRIPOS>BOND
   1    1    2 1
   2    1    6 am
   3    1   25 1
   4    2    3 2
   5    2   11 1
   6    3    4 1
   7    4    5 2
   8    4    7 1
   9    5    6 1
  10    5    9 1
  11    6   10 2
  12    7    8 1
  13    7   13 1
  14    8    9 2
  15    9   26 1
  16   11   12 1
  17   11   27 1
  18   11   28 1
  19   12   20 1
  20   12   24 1
  21   12   29 1
  22   13   14 ar
  23   13   18 ar
  24   14   15 ar
  25   14   30 1
  26   15   16 ar
  27   16   17 ar
  28   16   31 1
  29   17   18 ar
  30   17   32 1
  31   18   19 1
  32   19   33 1
  33   19   34 1
  34   19   35 1
  35   20   21 1
  36   20   36 1
  37   20   37 1
  38   21   22 1
  39   21   38 1
  40   21   39 1
  41   22   23 1
  42   22   40 1
  43   22   41 1
  44   23   24 1
  45   23   42 1
  46   23   43 1
  47   24   44 1
  48   24   45 1

#	End of record

