#	Name: ASD03092083
#	Creating user name:	WinNT
#	Creation time:	15. 06. 2019 20:31

#	Modifying user name:	WinNT
#	Modification time:	15. 06. 2019 20:31

#	Program:	/corina/corina34_cracker 3.40 0067  02.08.2006

@<TRIPOS>MOLECULE
ASD03092083
  43   45    0    0    0
SMALL
NO_CHARGES


@<TRIPOS>ATOM
   1 N1             0.2933     0.8885    -0.3959 N.pl3   
   2 C2             0.0900    -0.3660     0.0976 C.2     
   3 C3            -1.2513    -0.5093     0.3114 C.2     
   4 C4            -1.8746     0.6880    -0.0619 C.2     
   5 N5            -0.9520     1.5242    -0.4788 N.2     
   6 N6            -3.2483     0.9510     0.0039 N.pl3   
   7 C7            -3.7299     2.2307    -0.2885 C.ar    
   8 C8            -5.0102     2.3912    -0.8017 C.ar    
   9 C9            -5.4843     3.6582    -1.0901 C.ar    
  10 C10           -4.6811     4.7665    -0.8671 C.ar    
  11 C11           -2.9303     3.3436    -0.0606 C.ar    
  12 C12            1.1312    -1.3852     0.3539 C.ar    
  13 C13            1.5854     1.4705    -0.7674 C.3     
  14 C14            0.9069    -2.4310     1.2567 C.ar    
  15 C15            1.9043    -3.3601     1.4657 C.ar    
  16 N16            3.0566    -3.2728     0.8287 N.ar    
  17 C17            3.3098    -2.3028    -0.0310 C.ar    
  18 C18            2.3650    -1.3336    -0.3038 C.ar    
  19 Cl19           4.8483    -2.2492    -0.8332 Cl      
  20 C20           -3.4048     4.6068    -0.3555 C.ar    
  21 F21           -6.7296     3.8160    -1.5894 F       
  22 F22           -5.1448     6.0035    -1.1500 F       
  23 C23            1.8230     1.2664    -2.2415 C.2     
  24 N24            2.9560     1.7229    -2.8110 N.am    
  25 O25            0.9946     0.6914    -2.9154 O.2     
  26 C26            3.1870     1.5245    -4.2440 C.3     
  27 C27            3.9567     2.4174    -1.9970 C.3     
  28 H28           -1.7435    -1.3891     0.6989 H       
  29 H29           -3.8658     0.2454     0.2522 H       
  30 H30           -5.6350     1.5277    -0.9758 H       
  31 H31           -1.9360     3.2207     0.3427 H       
  32 H32            1.5809     2.5375    -0.5444 H       
  33 H33            2.3794     0.9842    -0.2007 H       
  34 H34           -0.0335    -2.5090     1.7821 H       
  35 H35            1.7402    -4.1703     2.1608 H       
  36 H36            2.5782    -0.5429    -1.0079 H       
  37 H37           -2.7809     5.4713    -0.1830 H       
  38 H38            2.7833     2.3720    -4.7979 H       
  39 H39            4.2578     1.4445    -4.4318 H       
  40 H40            2.6919     0.6092    -4.5685 H       
  41 H41            3.6125     2.4691    -0.9641 H       
  42 H42            4.9003     1.8734    -2.0388 H       
  43 H43            4.1018     3.4266    -2.3826 H       
@<TRIPOS>BOND
   1    1    2 1
   2    1   13 1
   3    1    5 1
   4    2    3 2
   5    2   12 1
   6    3    4 1
   7    3   28 1
   8    4    5 2
   9    4    6 1
  10    6    7 1
  11    6   29 1
  12    7    8 ar
  13    7   11 ar
  14    8    9 ar
  15    8   30 1
  16    9   10 ar
  17    9   21 1
  18   10   20 ar
  19   10   22 1
  20   11   20 ar
  21   11   31 1
  22   12   14 ar
  23   12   18 ar
  24   13   23 1
  25   13   32 1
  26   13   33 1
  27   14   15 ar
  28   14   34 1
  29   15   16 ar
  30   15   35 1
  31   16   17 ar
  32   17   18 ar
  33   17   19 1
  34   18   36 1
  35   20   37 1
  36   23   24 am
  37   23   25 2
  38   24   26 1
  39   24   27 1
  40   26   38 1
  41   26   39 1
  42   26   40 1
  43   27   41 1
  44   27   42 1
  45   27   43 1

#	End of record

