#	Name: ASD02198585
#	Creating user name:	WinNT
#	Creation time:	15. 06. 2019 20:19

#	Modifying user name:	WinNT
#	Modification time:	15. 06. 2019 20:19

#	Program:	/corina/corina34_cracker 3.40 0067  02.08.2006

@<TRIPOS>MOLECULE
ASD02198585
  50   54    0    0    0
SMALL
NO_CHARGES


@<TRIPOS>ATOM
   1 C1             0.0072     1.5096     0.1335 C.2     
   2 C2             0.0745     0.1696    -0.0948 C.2     
   3 N3            -1.0520    -0.5605    -0.2645 N.pl3   
   4 N4            -2.2300    -0.0571    -0.2237 N.2     
   5 C5            -2.4376     1.2257    -0.0103 C.2     
   6 C6            -1.2792     2.1066     0.1922 C.2     
   7 C7            -0.9244    -1.9341    -0.4967 C.ar    
   8 C8            -1.3844    -3.8649    -1.8485 C.ar    
   9 C9            -0.6724    -4.6548    -0.9557 C.ar    
  10 C10           -0.0911    -4.0823     0.1688 C.ar    
  11 C11           -0.2169    -2.7275     0.3979 C.ar    
  12 C12           -3.8108     1.7686     0.0296 C.2     
  13 N13           -4.3729     2.4809     1.0515 N.pl3   
  14 N14           -5.6845     2.7999     0.6782 N.2     
  15 C15           -5.9147     2.3076    -0.5128 C.2     
  16 C16           -4.7640     1.6573    -0.9587 C.2     
  17 C17           -3.7491     2.8295     2.2561 C.ar    
  18 C18           -2.9557     1.9045     2.9219 C.ar    
  19 O19           -1.4171     3.3045     0.3939 O.2     
  20 C20           -3.9181     4.1026     2.7843 C.ar    
  21 C21           -3.3017     4.4432     3.9723 C.ar    
  22 C22           -2.5165     3.5182     4.6356 C.ar    
  23 C23           -2.3419     2.2512     4.1096 C.ar    
  24 C24           -1.5110    -2.5076    -1.6209 C.ar    
  25 F25           -2.2040    -1.7384    -2.4887 F       
  26 O26            1.1345     2.2508     0.3051 O.3     
  27 C27            2.3828     1.5589     0.2346 C.3     
  28 N28           -0.5440    -6.0312    -1.1866 N.pl3   
  29 C29            0.5422    -6.7949    -0.8935 C.2     
  30 N30           -1.5141    -6.8668    -1.7549 N.2     
  31 C31           -1.0320    -8.0822    -1.8081 C.2     
  32 C32            0.2602    -8.0694    -1.2736 C.2     
  33 O33            1.6974    -6.3634    -0.3258 O.3     
  34 H34            1.0378    -0.3163    -0.1413 H       
  35 H35           -1.8357    -4.3104    -2.7227 H       
  36 H36            0.4625    -4.6977     0.8625 H       
  37 H37            0.2350    -2.2836     1.2726 H       
  38 H38           -6.8413     2.3937    -1.0610 H       
  39 H39           -4.6440     1.1521    -1.9057 H       
  40 H40           -2.8190     0.9148     2.5116 H       
  41 H41           -4.5306     4.8258     2.2663 H       
  42 H42           -3.4327     5.4332     4.3836 H       
  43 H43           -2.0352     3.7870     5.5643 H       
  44 H44           -1.7284     1.5308     4.6302 H       
  45 H45            2.4168     0.7909     1.0074 H       
  46 H46            2.4851     1.0930    -0.7454 H       
  47 H47            3.1988     2.2651     0.3881 H       
  48 H48           -1.5461    -8.9490    -2.1963 H       
  49 H49            0.9177    -8.9210    -1.1798 H       
  50 H50            1.6997    -6.4035     0.6404 H       
@<TRIPOS>BOND
   1    1    2 2
   2    1   26 1
   3    1    6 1
   4    2    3 1
   5    2   34 1
   6    3    4 1
   7    3    7 1
   8    4    5 2
   9    5    6 1
  10    5   12 1
  11    6   19 2
  12    7   24 ar
  13    7   11 ar
  14    8    9 ar
  15    8   24 ar
  16    8   35 1
  17    9   10 ar
  18    9   28 1
  19   10   11 ar
  20   10   36 1
  21   11   37 1
  22   12   13 1
  23   12   16 2
  24   13   14 1
  25   13   17 1
  26   14   15 2
  27   15   16 1
  28   15   38 1
  29   16   39 1
  30   17   20 ar
  31   17   18 ar
  32   18   23 ar
  33   18   40 1
  34   20   21 ar
  35   20   41 1
  36   21   22 ar
  37   21   42 1
  38   22   23 ar
  39   22   43 1
  40   23   44 1
  41   24   25 1
  42   26   27 1
  43   27   45 1
  44   27   46 1
  45   27   47 1
  46   28   29 1
  47   28   30 1
  48   29   33 1
  49   29   32 2
  50   30   31 2
  51   31   32 1
  52   31   48 1
  53   32   49 1
  54   33   50 1

#	End of record

