#	Name: ASD03080119
#	Creating user name:	WinNT
#	Creation time:	15. 06. 2019 20:26

#	Modifying user name:	WinNT
#	Modification time:	15. 06. 2019 20:26

#	Program:	/corina/corina34_cracker 3.40 0067  02.08.2006

@<TRIPOS>MOLECULE
ASD03080119
  34   36    0    0    0
SMALL
NO_CHARGES


@<TRIPOS>ATOM
   1 C1            -0.0173     1.4248     0.0099 C.3     
   2 O2             0.0021    -0.0041     0.0020 O.3     
   3 C3            -1.2010    -0.6378     0.0101 C.ar    
   4 C4            -2.3740     0.1024     0.0253 C.ar    
   5 C5            -3.5986    -0.5384     0.0335 C.ar    
   6 C6            -3.6578    -1.9226     0.0262 C.ar    
   7 C7            -2.4815    -2.6687     0.0105 C.ar    
   8 C8            -1.2540    -2.0229    -0.0026 C.ar    
   9 N9            -2.5383    -4.0698     0.0035 N.pl3   
  10 N10           -3.6176    -4.7713     0.0099 N.2     
  11 N11           -3.3044    -6.0225     0.0002 N.2     
  12 C12           -1.9660    -6.0976    -0.0129 C.2     
  13 N13           -1.5182    -4.8571    -0.0161 N.2     
  14 C14           -1.1476    -7.3359    -0.0270 C.ar    
  15 C15           -1.7600    -8.5915    -0.0280 C.ar    
  16 C16           -0.9523    -9.7161    -0.0413 C.ar    
  17 C17            0.4217    -9.5618    -0.0530 C.ar    
  18 N18            0.9712    -8.3626    -0.0517 N.ar    
  19 C19            0.2437    -7.2646    -0.0451 C.ar    
  20 O20           -4.8631    -2.5523     0.0348 O.3     
  21 C21           -6.0276    -1.7242     0.0513 C.3     
  22 H22            1.0053     1.8021     0.0021 H       
  23 H23           -0.5445     1.7859    -0.8732 H       
  24 H24           -0.5275     1.7763     0.9067 H       
  25 H25           -2.3303     1.1815     0.0310 H       
  26 H26           -4.5103     0.0405     0.0461 H       
  27 H27           -0.3405    -2.5988    -0.0152 H       
  28 H28           -2.8361    -8.6827    -0.0184 H       
  29 H29           -1.3908   -10.7031    -0.0422 H       
  30 H30            1.0548   -10.4368    -0.0630 H       
  31 H31            0.7301    -6.3003    -0.0442 H       
  32 H32           -6.0170    -1.1000     0.9448 H       
  33 H33           -6.0350    -1.0898    -0.8350 H       
  34 H34           -6.9193    -2.3512     0.0567 H       
@<TRIPOS>BOND
   1    1    2 1
   2    1   22 1
   3    1   23 1
   4    1   24 1
   5    2    3 1
   6    3    4 ar
   7    3    8 ar
   8    4    5 ar
   9    4   25 1
  10    5    6 ar
  11    5   26 1
  12    6    7 ar
  13    6   20 1
  14    7    8 ar
  15    7    9 1
  16    8   27 1
  17    9   10 1
  18    9   13 1
  19   10   11 2
  20   11   12 1
  21   12   13 2
  22   12   14 1
  23   14   15 ar
  24   14   19 ar
  25   15   16 ar
  26   15   28 1
  27   16   17 ar
  28   16   29 1
  29   17   18 ar
  30   17   30 1
  31   18   19 ar
  32   19   31 1
  33   20   21 1
  34   21   32 1
  35   21   33 1
  36   21   34 1

#	End of record

