#	Name: ASD01030002
#	Creating user name:	WinNT
#	Creation time:	15. 06. 2019 18:58

#	Modifying user name:	WinNT
#	Modification time:	15. 06. 2019 18:58

#	Program:	/corina/corina34_cracker 3.40 0067  02.08.2006

@<TRIPOS>MOLECULE
ASD01030002
  62   61    0    0    0
SMALL
NO_CHARGES


@<TRIPOS>ATOM
   1 C1            -2.0773    -0.7315    -0.2182 C.2     
   2 C2            -1.5892    -2.1469    -0.0468 C.3     
   3 C3            -0.0691    -2.1861    -0.2162 C.3     
   4 C4             0.4265    -3.6232    -0.0422 C.3     
   5 C5             1.9466    -3.6624    -0.2115 C.3     
   6 C6             2.4422    -5.0994    -0.0376 C.3     
   7 C7             3.9623    -5.1387    -0.2069 C.3     
   8 C8             4.4579    -6.5757    -0.0330 C.3     
   9 C9             5.9793    -6.6131    -0.1903 C.3     
  10 C10            6.4897    -8.0216     0.1202 C.3     
  11 C11            8.0111    -8.0590    -0.0371 C.3     
  12 C12            8.5082    -9.4937     0.1509 C.3     
  13 C13           10.0297    -9.5310    -0.0063 C.3     
  14 C14           10.5268   -10.9657     0.1817 C.3     
  15 C15           12.0482   -11.0031     0.0244 C.3     
  16 C16           12.5453   -12.4378     0.2125 C.3     
  17 C17           14.0667   -12.4751     0.0552 C.3     
  18 C18           14.5638   -13.9099     0.2433 C.3     
  19 O19           -1.2902     0.1549    -0.4517 O.2     
  20 O20           -3.3872    -0.4564    -0.1168 O.3     
  21 O21            6.1408    -8.3698     1.4615 O.3     
  22 O22            6.3282    -6.2649    -1.5316 O.3     
  23 S23            6.9961    -4.9037    -1.6640 S.o2    
  24 O24            7.1124    -4.6476    -3.0568 O.2     
  25 O25            6.3170    -4.0346    -0.7680 O.2     
  26 O26            8.4155    -5.0447    -1.1329 O.3     
  27 H27           -1.8532    -2.5043     0.9484 H       
  28 H28           -2.0550    -2.7852    -0.7976 H       
  29 H29            0.1950    -1.8287    -1.2115 H       
  30 H30            0.3967    -1.5478     0.5346 H       
  31 H31            0.1624    -3.9806     0.9531 H       
  32 H32           -0.0393    -4.2615    -0.7930 H       
  33 H33            2.2107    -3.3050    -1.2068 H       
  34 H34            2.4124    -3.0241     0.5392 H       
  35 H35            2.1781    -5.4569     0.9577 H       
  36 H36            1.9764    -5.7378    -0.7883 H       
  37 H37            4.2263    -4.7813    -1.2022 H       
  38 H38            4.4281    -4.5003     0.5438 H       
  39 H39            4.1862    -6.9362     0.9592 H       
  40 H40            3.9987    -7.2125    -0.7892 H       
  41 H41            6.4335    -5.9018     0.4996 H       
  42 H42            6.0355    -8.7329    -0.5697 H       
  43 H43            8.2822    -7.7081    -1.0329 H       
  44 H44            8.4698    -7.4143     0.7126 H       
  45 H45            8.2372    -9.8445     1.1467 H       
  46 H46            8.0495   -10.1384    -0.5988 H       
  47 H47           10.3007    -9.1802    -1.0021 H       
  48 H48           10.4884    -8.8864     0.7434 H       
  49 H49           10.2557   -11.3166     1.1775 H       
  50 H50           10.0681   -11.6104    -0.5680 H       
  51 H51           12.3193   -10.6522    -0.9713 H       
  52 H52           12.5069   -10.3584     0.7742 H       
  53 H53           12.2743   -12.7887     1.2083 H       
  54 H54           12.0866   -13.0825    -0.5372 H       
  55 H55           14.3378   -12.1243    -0.9405 H       
  56 H56           14.5254   -11.8305     0.8049 H       
  57 H57           14.1051   -14.5545    -0.5064 H       
  58 H58           15.6477   -13.9365     0.1312 H       
  59 H59           14.2928   -14.2607     1.2390 H       
  60 H60           -3.6524     0.4661    -0.2343 H       
  61 H61            6.5114    -7.7782     2.1305 H       
  62 H62            8.9328    -4.2287    -1.1717 H       
@<TRIPOS>BOND
   1    1    2 1
   2    1   19 2
   3    1   20 1
   4    2    3 1
   5    2   27 1
   6    2   28 1
   7    3    4 1
   8    3   29 1
   9    3   30 1
  10    4    5 1
  11    4   31 1
  12    4   32 1
  13    5    6 1
  14    5   33 1
  15    5   34 1
  16    6    7 1
  17    6   35 1
  18    6   36 1
  19    7    8 1
  20    7   37 1
  21    7   38 1
  22    8    9 1
  23    8   39 1
  24    8   40 1
  25    9   10 1
  26    9   22 1
  27    9   41 1
  28   10   11 1
  29   10   21 1
  30   10   42 1
  31   11   12 1
  32   11   43 1
  33   11   44 1
  34   12   13 1
  35   12   45 1
  36   12   46 1
  37   13   14 1
  38   13   47 1
  39   13   48 1
  40   14   15 1
  41   14   49 1
  42   14   50 1
  43   15   16 1
  44   15   51 1
  45   15   52 1
  46   16   17 1
  47   16   53 1
  48   16   54 1
  49   17   18 1
  50   17   55 1
  51   17   56 1
  52   18   57 1
  53   18   58 1
  54   18   59 1
  55   20   60 1
  56   21   61 1
  57   22   23 1
  58   23   24 2
  59   23   25 2
  60   23   26 1
  61   26   62 1

#	End of record

