#	Name: ASD03091956
#	Creating user name:	WinNT
#	Creation time:	15. 06. 2019 20:31

#	Modifying user name:	WinNT
#	Modification time:	15. 06. 2019 20:31

#	Program:	/corina/corina34_cracker 3.40 0067  02.08.2006

@<TRIPOS>MOLECULE
ASD03091956
  59   63    0    0    0
SMALL
NO_CHARGES


@<TRIPOS>ATOM
   1 C1            -0.0150     1.4030     0.0122 C.ar    
   2 C2            -1.2279     2.0727     0.0343 C.ar    
   3 C3            -2.4095     1.3526     0.0344 C.ar    
   4 C4            -2.3909    -0.0327     0.0125 C.ar    
   5 C5            -1.1912    -0.7141    -0.0096 C.ar    
   6 C6             0.0034     0.0001    -0.0096 C.ar    
   7 O7             1.1657     2.0697     0.0167 O.3     
   8 C8             2.2614     1.4539     0.6938 C.3     
   9 N9             2.4083     0.0563     0.2863 N.am    
  10 C10            1.3155    -0.6785    -0.0267 C.2     
  11 C11           -3.6883    -0.7995     0.0133 C.3     
  12 C12           -4.1977    -0.9263    -1.3994 C.ar    
  13 C13           -3.8237    -2.0111    -2.1719 C.ar    
  14 O14            1.4104    -1.8567    -0.3116 O.2     
  15 C15            3.7407    -0.5489     0.2168 C.3     
  16 C16            4.5953     0.1751    -0.8440 C.3     
  17 C17            4.4691    -0.3755     1.5612 C.3     
  18 C18            5.7408     0.4477     1.2704 C.3     
  19 C19            5.4066     1.2156    -0.0326 C.3     
  20 O20            4.8241    -1.6531     2.0938 O.3     
  21 C21           -3.7282     2.0815     0.0591 C.3     
  22 F22           -1.2568     3.4232     0.0560 F       
  23 C23           -4.2873    -2.1323    -3.4662 C.ar    
  24 C24           -5.1334    -1.1593    -3.9945 C.ar    
  25 C25           -5.5069    -0.0686    -3.2117 C.ar    
  26 C26           -5.0419     0.0396    -1.9167 C.ar    
  27 C27           -5.6346    -1.2839    -5.3854 C.ar    
  28 C28           -6.4811    -0.3157    -5.9395 C.ar    
  29 C29           -5.2734    -2.3681    -6.1888 C.ar    
  30 N30           -5.7356    -2.4499    -7.4207 N.ar    
  31 N31           -6.5152    -1.5624    -7.9208 N.ar    
  32 C32           -6.9077    -0.5000    -7.2425 C.ar    
  33 C33           -7.8200     0.5115    -7.8872 C.3     
  34 H34           -1.1792    -1.7939    -0.0263 H       
  35 H35            3.1780     1.9943     0.4575 H       
  36 H36            2.0880     1.4972     1.7691 H       
  37 H37           -3.5229    -1.7928     0.4304 H       
  38 H38           -4.4235    -0.2690     0.6184 H       
  39 H39           -3.1676    -2.7644    -1.7616 H       
  40 H40            3.6573    -1.6076    -0.0288 H       
  41 H41            5.2645    -0.5282    -1.3396 H       
  42 H42            3.9565     0.6737    -1.5730 H       
  43 H43            3.8312     0.1588     2.2652 H       
  44 H44            5.9381     1.1454     2.0843 H       
  45 H45            6.5951    -0.2115     1.1162 H       
  46 H46            6.3180     1.4929    -0.5622 H       
  47 H47            4.8005     2.0957     0.1823 H       
  48 H48            5.2869    -1.6109     2.9418 H       
  49 H49           -4.0563     2.2737    -0.9625 H       
  50 H50           -4.4718     1.4702     0.5705 H       
  51 H51           -3.6105     3.0279     0.5870 H       
  52 H52           -3.9944    -2.9795    -4.0686 H       
  53 H53           -6.1625     0.6884    -3.6161 H       
  54 H54           -5.3345     0.8820    -1.3076 H       
  55 H55           -6.7911     0.5466    -5.3680 H       
  56 H56           -4.6184    -3.1352    -5.8028 H       
  57 H57           -7.2220     1.2755    -8.3840 H       
  58 H58           -8.4546     0.0133    -8.6201 H       
  59 H59           -8.4432     0.9773    -7.1239 H       
@<TRIPOS>BOND
   1    1    6 ar
   2    1    7 1
   3    1    2 ar
   4    2    3 ar
   5    2   22 1
   6    3    4 ar
   7    3   21 1
   8    4    5 ar
   9    4   11 1
  10    5    6 ar
  11    5   34 1
  12    6   10 1
  13    7    8 1
  14    8    9 1
  15    8   35 1
  16    8   36 1
  17    9   10 am
  18    9   15 1
  19   10   14 2
  20   11   12 1
  21   11   37 1
  22   11   38 1
  23   12   13 ar
  24   12   26 ar
  25   13   23 ar
  26   13   39 1
  27   15   17 1
  28   15   16 1
  29   15   40 1
  30   16   19 1
  31   16   41 1
  32   16   42 1
  33   17   18 1
  34   17   20 1
  35   17   43 1
  36   18   19 1
  37   18   44 1
  38   18   45 1
  39   19   46 1
  40   19   47 1
  41   20   48 1
  42   21   49 1
  43   21   50 1
  44   21   51 1
  45   23   24 ar
  46   23   52 1
  47   24   25 ar
  48   24   27 1
  49   25   26 ar
  50   25   53 1
  51   26   54 1
  52   27   29 ar
  53   27   28 ar
  54   28   32 ar
  55   28   55 1
  56   29   30 ar
  57   29   56 1
  58   30   31 ar
  59   31   32 ar
  60   32   33 1
  61   33   57 1
  62   33   58 1
  63   33   59 1

#	End of record

