#	Name: ASD05720249
#	Creating user name:	WinNT
#	Creation time:	15. 06. 2019 21:02

#	Modifying user name:	WinNT
#	Modification time:	15. 06. 2019 21:02

#	Program:	/corina/corina34_cracker 3.40 0067  02.08.2006

@<TRIPOS>MOLECULE
ASD05720249
  70   74    0    0    0
SMALL
NO_CHARGES


@<TRIPOS>ATOM
   1 O1             0.5137     1.8973     0.4846 O.3     
   2 C2             0.4839     0.5600     0.4812 C.2     
   3 N3             1.6941    -0.0089     0.3946 N.am    
   4 C4             2.7138     1.0491     0.3280 C.3     
   5 C5             1.8945     2.3527     0.3904 C.3     
   6 O6            -0.5462    -0.0804     0.5506 O.2     
   7 C7             3.4905     0.9649    -0.9875 C.3     
   8 C8             2.5210     1.1086    -2.1623 C.3     
   9 C9             4.5267     2.0894    -1.0408 C.3     
  10 C10            3.4299    -3.1278     0.1424 C.2     
  11 N11            3.1713    -1.8167     0.1677 N.2     
  12 C12            1.9448    -1.3746     0.3720 C.2     
  13 C13            0.8889    -2.2880     0.5678 C.2     
  14 C14            1.1470    -3.6153     0.5433 C.2     
  15 N15            2.4279    -4.0429     0.3289 N.pl3   
  16 N16            2.9919    -5.3212     0.2500 N.2     
  17 C17            4.2784    -5.2136     0.0260 C.2     
  18 C18            4.6109    -3.8557    -0.0565 C.2     
  19 C19            5.9573    -3.2946    -0.3052 C.ar    
  20 C20            6.5938    -2.5387     0.6847 C.ar    
  21 C21            7.8477    -2.0171     0.4523 C.ar    
  22 C22            8.4820    -2.2436    -0.7718 C.ar    
  23 C23            7.8452    -2.9981    -1.7594 C.ar    
  24 C24            6.5948    -3.5244    -1.5255 C.ar    
  25 N25           10.7211    -1.3049    -0.0790 N.pl3   
  26 N26           11.8499    -0.8393    -0.7727 N.2     
  27 C27           11.5900    -0.9568    -2.0490 C.2     
  28 N28           10.3709    -1.4660    -2.2027 N.2     
  29 C29            9.8271    -1.6843    -1.0217 C.2     
  30 C30           10.5482    -1.3724     1.3742 C.3     
  31 O31           10.0386    -0.1256     1.8516 O.3     
  32 C32            9.8325    -0.0850     3.2651 C.3     
  33 C33            9.2885     1.2889     3.6619 C.3     
  34 Si34           9.0198     1.3419     5.5046 Si      
  35 C35           10.6378     1.0391     6.3770 C.3     
  36 C36            8.3573     3.0148     5.9878 C.3     
  37 C37            7.7956     0.0248     5.9919 C.3     
  38 F38            5.9794    -2.3199     1.8678 F       
  39 H39            3.3916     0.9818     1.1790 H       
  40 H40            2.0421     2.9404    -0.5156 H       
  41 H41            2.1665     2.9331     1.2720 H       
  42 H42            3.9965     0.0014    -1.0496 H       
  43 H43            1.9550     2.0339    -2.0552 H       
  44 H44            3.0827     1.1323    -3.0961 H       
  45 H45            1.8346     0.2619    -2.1725 H       
  46 H46            5.2679     1.9380    -0.2562 H       
  47 H47            5.0199     2.0831    -2.0128 H       
  48 H48            4.0302     3.0483    -0.8915 H       
  49 H49           -0.1165    -1.9311     0.7360 H       
  50 H50            0.3505    -4.3294     0.6917 H       
  51 H51            4.9687    -6.0373    -0.0814 H       
  52 H52            8.3399    -1.4330     1.2158 H       
  53 H53            8.3359    -3.1726    -2.7056 H       
  54 H54            6.1051    -4.1118    -2.2882 H       
  55 H55           12.2593    -0.6835    -2.8513 H       
  56 H56            9.8468    -2.1697     1.6200 H       
  57 H57           11.5097    -1.5762     1.8454 H       
  58 H58            9.1163    -0.8556     3.5502 H       
  59 H59           10.7792    -0.2621     3.7755 H       
  60 H60           10.0047     2.0595     3.3768 H       
  61 H61            8.3418     1.4660     3.1514 H       
  62 H62           11.3541     1.8097     6.0920 H       
  63 H63           10.4807     1.0701     7.4552 H       
  64 H64           11.0254     0.0604     6.0944 H       
  65 H65            7.4107     3.1919     5.4773 H       
  66 H66            8.2002     3.0458     7.0659 H       
  67 H67            9.0736     3.7854     5.7027 H       
  68 H68            8.1832    -0.9540     5.7092 H       
  69 H69            7.6384     0.0558     7.0700 H       
  70 H70            6.8490     0.2019     5.4814 H       
@<TRIPOS>BOND
   1    1    2 1
   2    1    5 1
   3    2    3 am
   4    2    6 2
   5    3    4 1
   6    3   12 1
   7    4    5 1
   8    4    7 1
   9    4   39 1
  10    5   40 1
  11    5   41 1
  12    7    8 1
  13    7    9 1
  14    7   42 1
  15    8   43 1
  16    8   44 1
  17    8   45 1
  18    9   46 1
  19    9   47 1
  20    9   48 1
  21   10   11 1
  22   10   15 1
  23   10   18 2
  24   11   12 2
  25   12   13 1
  26   13   14 2
  27   13   49 1
  28   14   15 1
  29   14   50 1
  30   15   16 1
  31   16   17 2
  32   17   18 1
  33   17   51 1
  34   18   19 1
  35   19   20 ar
  36   19   24 ar
  37   20   21 ar
  38   20   38 1
  39   21   22 ar
  40   21   52 1
  41   22   23 ar
  42   22   29 1
  43   23   24 ar
  44   23   53 1
  45   24   54 1
  46   25   26 1
  47   25   29 1
  48   25   30 1
  49   26   27 2
  50   27   28 1
  51   27   55 1
  52   28   29 2
  53   30   31 1
  54   30   56 1
  55   30   57 1
  56   31   32 1
  57   32   33 1
  58   32   58 1
  59   32   59 1
  60   33   34 1
  61   33   60 1
  62   33   61 1
  63   34   35 1
  64   34   36 1
  65   34   37 1
  66   35   62 1
  67   35   63 1
  68   35   64 1
  69   36   65 1
  70   36   66 1
  71   36   67 1
  72   37   68 1
  73   37   69 1
  74   37   70 1

#	End of record

