#	Name: ASD02030575
#	Creating user name:	WinNT
#	Creation time:	15. 06. 2019 20:15

#	Modifying user name:	WinNT
#	Modification time:	15. 06. 2019 20:15

#	Program:	/corina/corina34_cracker 3.40 0067  02.08.2006

@<TRIPOS>MOLECULE
ASD02030575
  53   55    0    0    0
SMALL
NO_CHARGES


@<TRIPOS>ATOM
   1 N1            -0.4499     1.8457     0.4087 N.am    
   2 C2            -0.2998     0.5063     0.4013 C.2     
   3 C3            -1.4865    -0.3696     0.4580 C.ar    
   4 O4             0.8131     0.0195     0.3479 O.2     
   5 C5            -1.3331    -1.7584     0.4505 C.ar    
   6 C6            -2.4430    -2.5722     0.5040 C.ar    
   7 C7            -3.7140    -2.0138     0.5655 C.ar    
   8 C8            -3.8709    -0.6331     0.5732 C.ar    
   9 C9            -2.7660     0.1877     0.5253 C.ar    
  10 O10           -4.8056    -2.8196     0.6177 O.3     
  11 C11           -5.0781    -3.4044     1.8001 C.2     
  12 N12           -6.1609    -4.1969     1.9264 N.am    
  13 O13           -4.3475    -3.2176     2.7530 O.2     
  14 C14           -6.4572    -4.8330     3.2124 C.3     
  15 C15           -7.0417    -4.4222     0.7776 C.3     
  16 C16            0.6751     2.6751     0.4565 C.ar    
  17 C17            1.8383     2.3139    -0.2115 C.ar    
  18 C18            2.9416     3.1374    -0.1554 C.ar    
  19 C19            2.9025     4.3263     0.5635 C.ar    
  20 C20            1.7487     4.6901     1.2218 C.ar    
  21 C21            0.6342     3.8649     1.1659 C.ar    
  22 C22           -7.3523    -3.9112     4.0431 C.3     
  23 C23           -6.5563    -5.6438    -0.0053 C.3     
  24 C24            4.1534     5.1651     0.5976 C.3     
  25 C25            3.8324     6.5912     1.0398 C.3     
  26 C26            3.0182     6.5243     2.3371 C.3     
  27 C27            1.6318     5.9721     2.0044 C.3     
  28 H28           -1.3380     2.2344     0.3768 H       
  29 H29           -0.3457    -2.1931     0.4024 H       
  30 H30           -2.3253    -3.6457     0.4978 H       
  31 H31           -4.8605    -0.2031     0.6207 H       
  32 H32           -2.8888     1.2607     0.5314 H       
  33 H33           -6.9703    -5.7791     3.0401 H       
  34 H34           -5.5268    -5.0168     3.7497 H       
  35 H35           -8.0590    -4.5961     1.1283 H       
  36 H36           -7.0255    -3.5456     0.1299 H       
  37 H37            1.8778     1.3916    -0.7721 H       
  38 H38            3.8458     2.8562    -0.6748 H       
  39 H39           -0.2692     4.1482     1.6857 H       
  40 H40           -8.2827    -3.7274     3.5058 H       
  41 H41           -7.5727    -4.3845     4.9999 H       
  42 H42           -6.8392    -2.9651     4.2154 H       
  43 H43           -6.5725    -6.5204     0.6424 H       
  44 H44           -7.2116    -5.8114    -0.8600 H       
  45 H45           -5.5390    -5.4699    -0.3560 H       
  46 H46            4.8634     4.7233     1.2968 H       
  47 H47            4.5975     5.1887    -0.3976 H       
  48 H48            4.7586     7.1382     1.2156 H       
  49 H49            3.2504     7.0929     0.2667 H       
  50 H50            3.5171     5.8681     3.0502 H       
  51 H51            2.9219     7.5235     2.7620 H       
  52 H52            1.0825     6.7089     1.4184 H       
  53 H53            1.0917     5.7751     2.9304 H       
@<TRIPOS>BOND
   1    1    2 am
   2    1   16 1
   3    1   28 1
   4    2    3 1
   5    2    4 2
   6    3    5 ar
   7    3    9 ar
   8    5    6 ar
   9    5   29 1
  10    6    7 ar
  11    6   30 1
  12    7    8 ar
  13    7   10 1
  14    8    9 ar
  15    8   31 1
  16    9   32 1
  17   10   11 1
  18   11   12 am
  19   11   13 2
  20   12   14 1
  21   12   15 1
  22   14   22 1
  23   14   33 1
  24   14   34 1
  25   15   23 1
  26   15   35 1
  27   15   36 1
  28   16   17 ar
  29   16   21 ar
  30   17   18 ar
  31   17   37 1
  32   18   19 ar
  33   18   38 1
  34   19   20 ar
  35   19   24 1
  36   20   21 ar
  37   20   27 1
  38   21   39 1
  39   22   40 1
  40   22   41 1
  41   22   42 1
  42   23   43 1
  43   23   44 1
  44   23   45 1
  45   24   25 1
  46   24   46 1
  47   24   47 1
  48   25   26 1
  49   25   48 1
  50   25   49 1
  51   26   27 1
  52   26   50 1
  53   26   51 1
  54   27   52 1
  55   27   53 1

#	End of record

