#	Name: ASD03080175
#	Creating user name:	WinNT
#	Creation time:	15. 06. 2019 20:26

#	Modifying user name:	WinNT
#	Modification time:	15. 06. 2019 20:26

#	Program:	/corina/corina34_cracker 3.40 0067  02.08.2006

@<TRIPOS>MOLECULE
ASD03080175
  33   34    0    0    0
SMALL
NO_CHARGES


@<TRIPOS>ATOM
   1 C1            -0.0167     1.3809     0.0096 C.ar    
   2 C2             0.0021    -0.0041     0.0020 C.ar    
   3 C3             1.2173    -0.6643    -0.0131 C.ar    
   4 C4             2.3890     0.1018    -0.0202 C.ar    
   5 C5             2.2855     1.4926    -0.0117 C.ar    
   6 N6             1.1048     2.0768     0.0027 N.ar    
   7 C7             3.7142    -0.5527    -0.0358 C.2     
   8 C8             4.8169     0.1832    -0.0424 C.2     
   9 N9             8.2817    -0.7032     1.1601 N.3     
  10 C10            6.9571    -0.0699     1.1858 C.3     
  11 C11            6.1680    -0.4841    -0.0583 C.3     
  12 C12            6.9362    -0.0532    -1.3109 C.3     
  13 C13            8.3295    -0.6878    -1.2890 C.3     
  14 C14            9.0560    -0.2677    -0.0092 C.3     
  15 C15            9.0155    -0.4398     2.4052 C.3     
  16 Cl16          -1.5394     2.2145     0.0213 Cl      
  17 H17           -0.9223    -0.5625     0.0082 H       
  18 H18            1.2611    -1.7433    -0.0190 H       
  19 H19            3.1812     2.0960    -0.0170 H       
  20 H20            3.7842    -1.6304    -0.0419 H       
  21 H21            4.7469     1.2609    -0.0363 H       
  22 H22            6.4198    -0.3879     2.0792 H       
  23 H23            7.0729     1.0139     1.1983 H       
  24 H24            6.0399    -1.5665    -0.0644 H       
  25 H25            6.3990    -0.3845    -2.1996 H       
  26 H26            7.0306     1.0326    -1.3248 H       
  27 H27            8.2354    -1.7734    -1.3144 H       
  28 H28            8.8966    -0.3507    -2.1567 H       
  29 H29            9.1620     0.8170     0.0089 H       
  30 H30           10.0431    -0.7293     0.0163 H       
  31 H31            8.4535    -0.8390     3.2495 H       
  32 H32            9.9928    -0.9201     2.3595 H       
  33 H33            9.1445     0.6353     2.5303 H       
@<TRIPOS>BOND
   1    1    2 ar
   2    1    6 ar
   3    1   16 1
   4    2    3 ar
   5    2   17 1
   6    3    4 ar
   7    3   18 1
   8    4    5 ar
   9    4    7 1
  10    5    6 ar
  11    5   19 1
  12    7    8 2
  13    7   20 1
  14    8   11 1
  15    8   21 1
  16    9   10 1
  17    9   14 1
  18    9   15 1
  19   10   11 1
  20   10   22 1
  21   10   23 1
  22   11   12 1
  23   11   24 1
  24   12   13 1
  25   12   25 1
  26   12   26 1
  27   13   14 1
  28   13   27 1
  29   13   28 1
  30   14   29 1
  31   14   30 1
  32   15   31 1
  33   15   32 1
  34   15   33 1

#	End of record

