#	Name: ASD00069127
#	Creating user name:	WinNT
#	Creation time:	15. 06. 2019 18:29

#	Modifying user name:	WinNT
#	Modification time:	15. 06. 2019 18:29

#	Program:	/corina/corina34_cracker 3.40 0067  02.08.2006

@<TRIPOS>MOLECULE
ASD00069127
  56   60    0    0    0
SMALL
NO_CHARGES


@<TRIPOS>ATOM
   1 C1            -0.0636     1.2948    -0.5901 C.2     
   2 N2            -0.0206     0.0042    -0.3442 N.2     
   3 C3             1.2317    -0.4331    -0.5262 C.2     
   4 C4             2.0015     0.6327    -0.9017 C.2     
   5 N5             1.1901     1.7130    -0.9413 N.pl3   
   6 C6            -1.2635     2.1474    -0.5071 C.2     
   7 O7            -1.1845     3.3347    -0.7586 O.2     
   8 N8            -2.4480     1.6110    -0.1527 N.am    
   9 C9             1.2976    -4.1252     0.1896 C.ar    
  10 C10            0.8187    -2.8402     0.0384 C.ar    
  11 C11            1.7017    -1.8289    -0.3506 C.ar    
  12 C12            3.0400    -2.1690    -0.5702 C.ar    
  13 C13            3.4347    -3.4789    -0.3959 C.ar    
  14 N14            2.5687    -4.4040    -0.0276 N.ar    
  15 C15            0.3576    -5.2237     0.6146 C.3     
  16 C16            0.1119    -5.4024     2.1142 C.3     
  17 C17           -0.9829    -4.8096     1.2250 C.3     
  18 C18           -3.5620     2.4379     0.0386 C.ar    
  19 C19           -4.8463     1.8957     0.0209 C.ar    
  20 C20           -5.9464     2.7213     0.2112 C.ar    
  21 C21           -5.7650     4.0780     0.4175 C.ar    
  22 C22           -4.4907     4.6142     0.4343 C.ar    
  23 C23           -3.3901     3.7979     0.2518 C.ar    
  24 F24           -7.1930     2.2008     0.1945 F       
  25 N25           -5.0263     0.5224    -0.1887 N.3     
  26 C26           -5.7498     0.2717    -1.4417 C.3     
  27 C27           -5.8005    -1.2340    -1.7105 C.3     
  28 C28           -6.5050    -1.9324    -0.5441 C.3     
  29 C29           -5.7596    -1.6157     0.7554 C.3     
  30 C30           -5.7101    -0.0989     0.9527 C.3     
  31 N31           -6.5425    -1.4857    -2.9531 N.3     
  32 H32            3.0582     0.6149    -1.1240 H       
  33 H33            1.4492     2.6178    -1.1761 H       
  34 H34           -2.5290     0.6522    -0.0301 H       
  35 H35           -0.2231    -2.6191     0.2175 H       
  36 H36            3.7541    -1.4171    -0.8721 H       
  37 H37            4.4663    -3.7513    -0.5635 H       
  38 H38            0.3737    -6.1215    -0.0032 H       
  39 H39           -0.0339    -6.4178     2.4828 H       
  40 H40            0.6303    -4.7255     2.7933 H       
  41 H41           -1.1849    -3.7426     1.3191 H       
  42 H42           -1.8491    -5.4349     1.0085 H       
  43 H43           -6.6212     4.7194     0.5655 H       
  44 H44           -4.3544     5.6734     0.5954 H       
  45 H45           -2.3961     4.2199     0.2705 H       
  46 H46           -6.7649     0.6602    -1.3590 H       
  47 H47           -5.2361     0.7703    -2.2637 H       
  48 H48           -4.7860    -1.6208    -1.8071 H       
  49 H49           -7.5319    -1.5741    -0.4716 H       
  50 H50           -6.5049    -3.0096    -0.7108 H       
  51 H51           -6.2810    -2.0751     1.5952 H       
  52 H52           -4.7445    -2.0085     0.6977 H       
  53 H53           -5.1676     0.1305     1.8699 H       
  54 H54           -6.7254     0.2913     1.0242 H       
  55 H55           -6.5897    -2.4737    -3.1523 H       
  56 H56           -7.4657    -1.0808    -2.9114 H       
@<TRIPOS>BOND
   1    1    2 2
   2    1    5 1
   3    1    6 1
   4    2    3 1
   5    3    4 2
   6    3   11 1
   7    4    5 1
   8    4   32 1
   9    5   33 1
  10    6    7 2
  11    6    8 am
  12    8   18 1
  13    8   34 1
  14    9   10 ar
  15    9   14 ar
  16    9   15 1
  17   10   11 ar
  18   10   35 1
  19   11   12 ar
  20   12   13 ar
  21   12   36 1
  22   13   14 ar
  23   13   37 1
  24   15   16 1
  25   15   17 1
  26   15   38 1
  27   16   17 1
  28   16   39 1
  29   16   40 1
  30   17   41 1
  31   17   42 1
  32   18   19 ar
  33   18   23 ar
  34   19   20 ar
  35   19   25 1
  36   20   21 ar
  37   20   24 1
  38   21   22 ar
  39   21   43 1
  40   22   23 ar
  41   22   44 1
  42   23   45 1
  43   25   26 1
  44   25   30 1
  45   26   27 1
  46   26   46 1
  47   26   47 1
  48   27   28 1
  49   27   31 1
  50   27   48 1
  51   28   29 1
  52   28   49 1
  53   28   50 1
  54   29   30 1
  55   29   51 1
  56   29   52 1
  57   30   53 1
  58   30   54 1
  59   31   55 1
  60   31   56 1

#	End of record

