#	Name: ASD03910063
#	Creating user name:	WinNT
#	Creation time:	15. 06. 2019 20:47

#	Modifying user name:	WinNT
#	Modification time:	15. 06. 2019 20:47

#	Program:	/corina/corina34_cracker 3.40 0067  02.08.2006

@<TRIPOS>MOLECULE
ASD03910063
  66   68    0    0    0
SMALL
NO_CHARGES


@<TRIPOS>ATOM
   1 C1             0.7677     1.5444     2.0393 C.ar    
   2 C2             1.0558     0.3405     1.4232 C.ar    
   3 C3             0.0763    -0.3269     0.7109 C.ar    
   4 C4            -1.1933     0.2077     0.6124 C.ar    
   5 C5            -1.4859     1.4166     1.2301 C.ar    
   6 C6            -0.5017     2.0813     1.9498 C.ar    
   7 N7            -2.7712     1.9609     1.1322 N.am    
   8 C8            -2.9339     3.2971     1.0647 C.2     
   9 O9            -1.9749     4.0311     1.1772 O.2     
  10 C10           -4.2154     5.3828     0.8128 C.ar    
  11 C11           -4.0043     6.0322    -0.3894 C.ar    
  12 C12           -3.9254     7.4109    -0.4266 C.ar    
  13 C13           -4.0583     8.1439     0.7437 C.ar    
  14 C14           -4.2700     7.4900     1.9488 C.ar    
  15 C15           -4.3481     6.1111     1.9806 C.ar    
  16 O16           -3.9806     9.5003     0.7098 O.3     
  17 C17           -4.2062    10.1939     1.9387 C.3     
  18 C18           -5.5760     9.8640     2.4733 C.2     
  19 C19            1.8381     2.2684     2.8146 C.3     
  20 C20            0.3947    -1.6387     0.0409 C.3     
  21 O21           -5.7483     9.7457     3.6680 O.2     
  22 N22           -6.6095     9.7005     1.6239 N.am    
  23 C23           -4.3072     3.8791     0.8496 C.3     
  24 C24           -7.9157     9.2751     2.1329 C.3     
  25 C25           -8.6857    10.4797     2.6095 C.2     
  26 O26           -8.1938    11.5805     2.5319 O.2     
  27 O27           -9.9180    10.3296     3.1201 O.3     
  28 C28           -8.6966     8.5799     1.0158 C.3     
  29 C29           -3.1308     9.8053     2.9684 C.3     
  30 C30           -2.3847    11.1040     3.3378 C.3     
  31 C31           -3.3975    12.2297     3.0122 C.3     
  32 C32           -4.0773    11.7153     1.7181 C.3     
  33 S33           -7.8440     7.0499     0.5438 S.3     
  34 C34           -8.9027     6.3809    -0.7685 C.3     
  35 H35            2.0481    -0.0792     1.4981 H       
  36 H36           -1.9577    -0.3137     0.0554 H       
  37 H37           -0.7262     3.0214     2.4316 H       
  38 H38           -3.5452     1.3765     1.1130 H       
  39 H39           -3.9006     5.4611    -1.3002 H       
  40 H40           -3.7601     7.9176    -1.3659 H       
  41 H41           -4.3734     8.0584     2.8613 H       
  42 H42           -4.5129     5.6015     2.9185 H       
  43 H43            2.3736     2.9456     2.1491 H       
  44 H44            1.3790     2.8396     3.6215 H       
  45 H45            2.5361     1.5437     3.2339 H       
  46 H46            0.1942    -2.4576     0.7318 H       
  47 H47           -0.2259    -1.7528    -0.8478 H       
  48 H48            1.4463    -1.6545    -0.2457 H       
  49 H49           -6.4885     9.8644     0.6755 H       
  50 H50           -4.7115     3.5165    -0.0955 H       
  51 H51           -4.9627     3.5749     1.6656 H       
  52 H52           -7.7744     8.5826     2.9627 H       
  53 H53          -10.3726    11.1314     3.4125 H       
  54 H54           -9.7006     8.3426     1.3677 H       
  55 H55           -8.7612     9.2412     0.1518 H       
  56 H56           -3.5997     9.3789     3.8551 H       
  57 H57           -2.4369     9.0876     2.5307 H       
  58 H58           -2.1342    11.1114     4.3986 H       
  59 H59           -1.4853    11.2129     2.7317 H       
  60 H60           -4.1273    12.3368     3.8147 H       
  61 H61           -2.8817    13.1724     2.8292 H       
  62 H62           -3.4515    11.9227     0.8501 H       
  63 H63           -5.0610    12.1691     1.5976 H       
  64 H64           -8.4806     5.4448    -1.1341 H       
  65 H65           -9.9016     6.1987    -0.3720 H       
  66 H66           -8.9622     7.0972    -1.5879 H       
@<TRIPOS>BOND
   1    1    2 ar
   2    1   19 1
   3    1    6 ar
   4    2    3 ar
   5    2   35 1
   6    3    4 ar
   7    3   20 1
   8    4    5 ar
   9    4   36 1
  10    5    6 ar
  11    5    7 1
  12    6   37 1
  13    7    8 am
  14    7   38 1
  15    8    9 2
  16    8   23 1
  17   10   11 ar
  18   10   15 ar
  19   10   23 1
  20   11   12 ar
  21   11   39 1
  22   12   13 ar
  23   12   40 1
  24   13   14 ar
  25   13   16 1
  26   14   15 ar
  27   14   41 1
  28   15   42 1
  29   16   17 1
  30   17   18 1
  31   17   29 1
  32   17   32 1
  33   18   21 2
  34   18   22 am
  35   19   43 1
  36   19   44 1
  37   19   45 1
  38   20   46 1
  39   20   47 1
  40   20   48 1
  41   22   24 1
  42   22   49 1
  43   23   50 1
  44   23   51 1
  45   24   25 1
  46   24   28 1
  47   24   52 1
  48   25   26 2
  49   25   27 1
  50   27   53 1
  51   28   33 1
  52   28   54 1
  53   28   55 1
  54   29   30 1
  55   29   56 1
  56   29   57 1
  57   30   31 1
  58   30   58 1
  59   30   59 1
  60   31   32 1
  61   31   60 1
  62   31   61 1
  63   32   62 1
  64   32   63 1
  65   33   34 1
  66   34   64 1
  67   34   65 1
  68   34   66 1

#	End of record

