#	Name: ASD03731175
#	Creating user name:	WinNT
#	Creation time:	15. 06. 2019 20:45

#	Modifying user name:	WinNT
#	Modification time:	15. 06. 2019 20:45

#	Program:	/corina/corina34_cracker 3.40 0067  02.08.2006

@<TRIPOS>MOLECULE
ASD03731175
  68   73    0    0    0
SMALL
NO_CHARGES


@<TRIPOS>ATOM
   1 N1            -0.0162     1.3436     0.0094 N.am    
   2 C2             0.0021    -0.0041     0.0020 C.2     
   3 O3             1.0631    -0.5976    -0.0113 O.2     
   4 N4            -1.1558    -0.6938     0.0094 N.am    
   5 C5            -1.1360    -2.1586     0.0013 C.3     
   6 C6            -2.5713    -2.6882     0.0122 C.3     
   7 O7             2.2525    -7.6022     2.0795 O.3     
   8 C8             2.6758    -8.9589     2.3104 C.3     
   9 O9             1.4988    -9.5998     2.8363 O.3     
  10 C10            0.4425    -8.9016     2.3248 C.ar    
  11 C11            0.9065    -7.6730     1.8605 C.ar    
  12 C12           -0.8990    -9.2207     2.2151 C.ar    
  13 C13           -1.7935    -8.3204     1.6441 C.ar    
  14 C14           -1.3195    -7.0928     1.1914 C.ar    
  15 C15            0.0185    -6.7742     1.2938 C.ar    
  16 O16           -3.1345    -8.4425     1.4274 O.3     
  17 C17           -2.5117    -6.3418     0.6616 C.3     
  18 C18           -3.7026    -7.1356     1.2157 C.3     
  19 N19           -2.5515    -4.1530     0.0041 N.am    
  20 C20           -2.5311    -4.9114     1.1183 C.2     
  21 C21           -2.5282    -6.2810    -0.8370 C.ar    
  22 C22           -2.5240    -7.2371    -1.8281 C.ar    
  23 C23           -2.5450    -6.8566    -3.1581 C.ar    
  24 C24           -2.5695    -5.5141    -3.4896 C.ar    
  25 C25           -2.5728    -4.5527    -2.5006 C.ar    
  26 C26           -2.5523    -4.9266    -1.1591 C.ar    
  27 O27           -2.5292    -4.5161     2.2649 O.2     
  28 C28            1.2424     2.0932     0.0014 C.3     
  29 C29            0.9425     3.5935     0.0124 C.3     
  30 C30            2.2372     4.3647     0.0041 C.ar    
  31 C31            2.8183     4.7241    -1.1969 C.ar    
  32 C32            4.0108     5.4339    -1.2071 C.ar    
  33 C33            4.6187     5.7827    -0.0110 C.ar    
  34 C34            4.0334     5.4214     1.1927 C.ar    
  35 C35            2.8383     4.7161     1.1976 C.ar    
  36 O36            4.6272     5.7615     2.3668 O.3     
  37 C37            5.8531     6.4914     2.2863 C.3     
  38 O38            4.5823     5.7863    -2.3886 O.3     
  39 C39            5.8093     6.5158    -2.3236 C.3     
  40 H40           -0.8627     1.8171     0.0160 H       
  41 H41           -2.0023    -0.2203     0.0200 H       
  42 H42           -0.6258    -2.5101    -0.8955 H       
  43 H43           -0.6088    -2.5197     0.8844 H       
  44 H44           -3.0815    -2.3367     0.9090 H       
  45 H45           -3.0985    -2.3271    -0.8709 H       
  46 H46            2.9825    -9.4287     1.3759 H       
  47 H47            3.4860    -8.9885     3.0390 H       
  48 H48           -1.2546   -10.1749     2.5749 H       
  49 H49            0.3745    -5.8211     0.9314 H       
  50 H50           -4.5118    -7.1787     0.4868 H       
  51 H51           -4.0495    -6.7073     2.1560 H       
  52 H52           -2.5046    -8.2849    -1.5668 H       
  53 H53           -2.5426    -7.6062    -3.9356 H       
  54 H54           -2.5857    -5.2172    -4.5278 H       
  55 H55           -2.5915    -3.5064    -2.7674 H       
  56 H56            1.8260     1.8329     0.8845 H       
  57 H57            1.8090     1.8425    -0.8954 H       
  58 H58            0.3589     3.8538    -0.8707 H       
  59 H59            0.3759     3.8443     0.9091 H       
  60 H60            2.3443     4.4521    -2.1284 H       
  61 H61            5.5469     6.3348    -0.0169 H       
  62 H62            2.3798     4.4379     2.1351 H       
  63 H63            6.2196     6.6982     3.2918 H       
  64 H64            6.5923     5.9015     1.7443 H       
  65 H65            5.6825     7.4313     1.7612 H       
  66 H66            5.6484     7.4502    -1.7859 H       
  67 H67            6.5587     5.9207    -1.8018 H       
  68 H68            6.1567     6.7331    -3.3337 H       
@<TRIPOS>BOND
   1    1    2 am
   2    1   28 1
   3    1   40 1
   4    2    3 2
   5    2    4 am
   6    4    5 1
   7    4   41 1
   8    5    6 1
   9    5   42 1
  10    5   43 1
  11    6   19 1
  12    6   44 1
  13    6   45 1
  14    7    8 1
  15    7   11 1
  16    8    9 1
  17    8   46 1
  18    8   47 1
  19    9   10 1
  20   10   11 ar
  21   10   12 ar
  22   11   15 ar
  23   12   13 ar
  24   12   48 1
  25   13   14 ar
  26   13   16 1
  27   14   15 ar
  28   14   17 1
  29   15   49 1
  30   16   18 1
  31   17   18 1
  32   17   20 1
  33   17   21 1
  34   18   50 1
  35   18   51 1
  36   19   20 am
  37   19   26 1
  38   20   27 2
  39   21   22 ar
  40   21   26 ar
  41   22   23 ar
  42   22   52 1
  43   23   24 ar
  44   23   53 1
  45   24   25 ar
  46   24   54 1
  47   25   26 ar
  48   25   55 1
  49   28   29 1
  50   28   56 1
  51   28   57 1
  52   29   30 1
  53   29   58 1
  54   29   59 1
  55   30   31 ar
  56   30   35 ar
  57   31   32 ar
  58   31   60 1
  59   32   33 ar
  60   32   38 1
  61   33   34 ar
  62   33   61 1
  63   34   35 ar
  64   34   36 1
  65   35   62 1
  66   36   37 1
  67   37   63 1
  68   37   64 1
  69   37   65 1
  70   38   39 1
  71   39   66 1
  72   39   67 1
  73   39   68 1

#	End of record

