#	Name: ASD01903161
#	Creating user name:	WinNT
#	Creation time:	15. 06. 2019 19:54

#	Modifying user name:	WinNT
#	Modification time:	15. 06. 2019 19:54

#	Program:	/corina/corina34_cracker 3.40 0067  02.08.2006

@<TRIPOS>MOLECULE
ASD01903161
  40   42    0    0    0
SMALL
NO_CHARGES


@<TRIPOS>ATOM
   1 C1             1.7345    -1.7067     2.0590 C.ar    
   2 C2             0.7262    -1.1753     1.2706 C.ar    
   3 C3             1.0002    -0.0841     0.4612 C.ar    
   4 N4             2.2011     0.4509     0.4326 N.ar    
   5 C5             3.1945    -0.0275     1.1721 C.ar    
   6 C6             2.9906    -1.1224     2.0087 C.ar    
   7 C7             4.5308     0.6082     1.1069 C.2     
   8 N8             4.7342     1.6679     0.2993 N.am    
   9 O9             5.4437     0.1743     1.7816 O.2     
  10 C10            5.9672     2.3272     0.3083 C.ar    
  11 C11            7.1410     1.6059     0.4852 C.ar    
  12 C12            8.3572     2.2603     0.4936 C.ar    
  13 C13            8.4072     3.6321     0.3263 C.ar    
  14 C14            7.2404     4.3532     0.1504 C.ar    
  15 C15            6.0214     3.7043     0.1347 C.ar    
  16 S16            9.9609     4.4630     0.3377 S.o2    
  17 O17            9.6926     5.8106     0.6999 O.2     
  18 O18           10.8571     3.6282     1.0583 O.2     
  19 N19           10.5091     4.4989    -1.2245 N.am    
  20 C20            9.7604     5.1426    -2.2129 C.ar    
  21 C21            9.7208     4.6274    -3.5026 C.ar    
  22 C22            8.9789     5.2665    -4.4775 C.ar    
  23 C23            8.2770     6.4174    -4.1706 C.ar    
  24 C24            8.3144     6.9327    -2.8876 C.ar    
  25 C25            9.0493     6.2959    -1.9070 C.ar    
  26 I26           10.7852     2.8842    -3.9689 I       
  27 H27            1.5449    -2.5540     2.7013 H       
  28 H28           -0.2634    -1.6076     1.2864 H       
  29 H29            0.2169     0.3323    -0.1547 H       
  30 H30            3.7997    -1.5108     2.6094 H       
  31 H31            4.0253     1.9731    -0.2882 H       
  32 H32            7.1026     0.5346     0.6163 H       
  33 H33            9.2702     1.7000     0.6315 H       
  34 H34            7.2829     5.4245     0.0203 H       
  35 H35            5.1106     4.2681    -0.0027 H       
  36 H36           11.3500     4.0730    -1.4534 H       
  37 H37            8.9475     4.8667    -5.4803 H       
  38 H38            7.6984     6.9155    -4.9345 H       
  39 H39            7.7649     7.8320    -2.6514 H       
  40 H40            9.0776     6.6988    -0.9054 H       
@<TRIPOS>BOND
   1    1    2 ar
   2    1    6 ar
   3    1   27 1
   4    2    3 ar
   5    2   28 1
   6    3    4 ar
   7    3   29 1
   8    4    5 ar
   9    5    6 ar
  10    5    7 1
  11    6   30 1
  12    7    8 am
  13    7    9 2
  14    8   10 1
  15    8   31 1
  16   10   11 ar
  17   10   15 ar
  18   11   12 ar
  19   11   32 1
  20   12   13 ar
  21   12   33 1
  22   13   14 ar
  23   13   16 1
  24   14   15 ar
  25   14   34 1
  26   15   35 1
  27   16   17 2
  28   16   18 2
  29   16   19 am
  30   19   20 1
  31   19   36 1
  32   20   21 ar
  33   20   25 ar
  34   21   22 ar
  35   21   26 1
  36   22   23 ar
  37   22   37 1
  38   23   24 ar
  39   23   38 1
  40   24   25 ar
  41   24   39 1
  42   25   40 1

#	End of record

