#	Name: ASD01560020
#	Creating user name:	WinNT
#	Creation time:	15. 06. 2019 19:22

#	Modifying user name:	WinNT
#	Modification time:	15. 06. 2019 19:22

#	Program:	/corina/corina34_cracker 3.40 0067  02.08.2006

@<TRIPOS>MOLECULE
ASD01560020
  64   69    0    0    0
SMALL
NO_CHARGES


@<TRIPOS>ATOM
   1 C1             1.4656     5.8915    -1.7057 C.3     
   2 C2             1.7324     5.3723    -3.1395 C.3     
   3 C3             1.7819     3.8400    -2.9832 C.3     
   4 O4             1.6109     3.5472    -1.5863 O.3     
   5 C5             0.8629     4.6419    -1.0147 C.3     
   6 C6             3.1350     3.3115    -3.4637 C.3     
   7 O7             3.1296     1.8831    -3.4245 O.3     
   8 C8             4.3062     1.2823    -3.9692 C.3     
   9 C9             4.3755     1.5639    -5.4481 C.ar    
  10 C10            5.5234     1.8562    -3.2910 C.ar    
  11 C11            4.2605    -0.2070    -3.7431 C.ar    
  12 C12            3.4165    -0.7349    -2.7840 C.ar    
  13 C13            3.3746    -2.1009    -2.5765 C.ar    
  14 C14            4.1764    -2.9391    -3.3285 C.ar    
  15 C15            5.0197    -2.4113    -4.2883 C.ar    
  16 C16            5.0584    -1.0456    -4.4987 C.ar    
  17 C17            3.2228     1.8669    -6.1485 C.ar    
  18 C18            3.2857     2.1253    -7.5048 C.ar    
  19 C19            4.5026     2.0807    -8.1615 C.ar    
  20 C20            5.6559     1.7774    -7.4600 C.ar    
  21 C21            5.5925     1.5247    -6.1026 C.ar    
  22 C22            6.1824     1.1258    -2.3199 C.ar    
  23 C23            7.2989     1.6523    -1.6977 C.ar    
  24 C24            7.7566     2.9091    -2.0469 C.ar    
  25 C25            7.0981     3.6391    -3.0187 C.ar    
  26 C26            5.9841     3.1108    -3.6439 C.ar    
  27 O27            2.6837     6.2870    -1.0717 O.3     
  28 N28            1.0670     4.7049     0.4346 N.pl3   
  29 C29            0.2217     5.2752     1.3465 C.2     
  30 C30            0.8227     5.0980     2.5965 C.2     
  31 N31            1.9871     4.4390     2.3933 N.2     
  32 C32            2.1308     4.2009     1.1214 C.2     
  33 N33           -0.9569     5.9082     1.2626 N.2     
  34 N34           -1.0292     6.2251     3.5688 N.am    
  35 C35            0.1564     5.5994     3.7424 C.2     
  36 O36            0.6390     5.4696     4.8542 O.2     
  37 O37            2.9821     5.8661    -3.6258 O.3     
  38 C38           -1.5568     6.3638     2.3265 C.2     
  39 Cl39           4.5824     2.4046    -9.8651 Cl      
  40 H40            0.7501     6.7137    -1.7166 H       
  41 H41            0.9220     5.6637    -3.8077 H       
  42 H42            0.9774     3.3826    -3.5590 H       
  43 H43           -0.1971     4.5468    -1.2503 H       
  44 H44            3.3138     3.6463    -4.4855 H       
  45 H45            3.9243     3.6898    -2.8140 H       
  46 H46            2.7901    -0.0800    -2.1965 H       
  47 H47            2.7157    -2.5133    -1.8267 H       
  48 H48            4.1442    -4.0063    -3.1659 H       
  49 H49            5.6463    -3.0662    -4.8755 H       
  50 H50            5.7172    -0.6332    -5.2486 H       
  51 H51            2.2728     1.9014    -5.6358 H       
  52 H52            2.3850     2.3617    -8.0519 H       
  53 H53            6.6061     1.7424    -7.9721 H       
  54 H54            6.4927     1.2879    -5.5549 H       
  55 H55            5.8249     0.1439    -2.0471 H       
  56 H56            7.8134     1.0819    -0.9386 H       
  57 H57            8.6285     3.3207    -1.5603 H       
  58 H58            7.4555     4.6212    -3.2912 H       
  59 H59            5.4697     3.6812    -4.4031 H       
  60 H60            3.1449     7.0083    -1.5212 H       
  61 H61            2.9706     3.6877     0.6765 H       
  62 H62           -1.5054     6.5773     4.3370 H       
  63 H63            3.0266     6.8301    -3.6883 H       
  64 H64           -2.5052     6.8683     2.2154 H       
@<TRIPOS>BOND
   1    1   27 1
   2    1    2 1
   3    1    5 1
   4    1   40 1
   5    2   37 1
   6    2    3 1
   7    2   41 1
   8    3    4 1
   9    3    6 1
  10    3   42 1
  11    4    5 1
  12    5   28 1
  13    5   43 1
  14    6    7 1
  15    6   44 1
  16    6   45 1
  17    7    8 1
  18    8    9 1
  19    8   10 1
  20    8   11 1
  21    9   17 ar
  22    9   21 ar
  23   10   22 ar
  24   10   26 ar
  25   11   12 ar
  26   11   16 ar
  27   12   13 ar
  28   12   46 1
  29   13   14 ar
  30   13   47 1
  31   14   15 ar
  32   14   48 1
  33   15   16 ar
  34   15   49 1
  35   16   50 1
  36   17   18 ar
  37   17   51 1
  38   18   19 ar
  39   18   52 1
  40   19   20 ar
  41   19   39 1
  42   20   21 ar
  43   20   53 1
  44   21   54 1
  45   22   23 ar
  46   22   55 1
  47   23   24 ar
  48   23   56 1
  49   24   25 ar
  50   24   57 1
  51   25   26 ar
  52   25   58 1
  53   26   59 1
  54   27   60 1
  55   28   29 1
  56   28   32 1
  57   29   30 2
  58   29   33 1
  59   30   31 1
  60   30   35 1
  61   31   32 2
  62   32   61 1
  63   33   38 2
  64   34   35 am
  65   34   38 1
  66   34   62 1
  67   35   36 2
  68   37   63 1
  69   38   64 1

#	End of record

