#	Name: ASD02030697
#	Creating user name:	WinNT
#	Creation time:	15. 06. 2019 20:15

#	Modifying user name:	WinNT
#	Modification time:	15. 06. 2019 20:15

#	Program:	/corina/corina34_cracker 3.40 0067  02.08.2006

@<TRIPOS>MOLECULE
ASD02030697
  15   15    0    0    0
SMALL
NO_CHARGES


@<TRIPOS>ATOM
   1 N1            -0.0169     1.3957     0.0097 N.2     
   2 N2             0.0021    -0.0041     0.0020 N.am    
   3 C3             1.1646    -0.6797    -0.0123 C.2     
   4 N4             2.3448    -0.0325    -0.0200 N.am    
   5 C5             2.3757     1.3164    -0.0131 C.2     
   6 C6             1.1074     2.0610     0.0026 C.2     
   7 O7             1.1494    -1.8958    -0.0178 O.2     
   8 O8             3.4386     1.9089    -0.0192 O.2     
   9 C9            -1.2627    -0.7434     0.0101 C.3     
  10 O10            1.1051     3.4197     0.0094 O.3     
  11 H11            3.1737    -0.5362    -0.0303 H       
  12 H12           -2.0949    -0.0395     0.0218 H       
  13 H13           -1.3256    -1.3655    -0.8827 H       
  14 H14           -1.3086    -1.3751     0.8972 H       
  15 H15            0.2211     3.8114     0.0197 H       
@<TRIPOS>BOND
   1    1    2 1
   2    1    6 2
   3    2    3 am
   4    2    9 1
   5    3    4 am
   6    3    7 2
   7    4    5 am
   8    4   11 1
   9    5    6 1
  10    5    8 2
  11    6   10 1
  12    9   12 1
  13    9   13 1
  14    9   14 1
  15   10   15 1

#	End of record

