#	Name: ASD02039467
#	Creating user name:	WinNT
#	Creation time:	15. 06. 2019 20:18

#	Modifying user name:	WinNT
#	Modification time:	15. 06. 2019 20:18

#	Program:	/corina/corina34_cracker 3.40 0067  02.08.2006

@<TRIPOS>MOLECULE
ASD02039467
  50   53    0    0    0
SMALL
NO_CHARGES


@<TRIPOS>ATOM
   1 C1             0.1619     1.7427     0.0667 C.ar    
   2 C2             0.6652     0.4541     0.0561 C.ar    
   3 C3             1.1034     2.9176     0.0002 C.3     
   4 N4             1.4184     3.2123    -1.3998 N.am    
   5 C5             0.7285     4.1633    -2.0600 C.2     
   6 C6            -0.4048     4.8397    -1.4052 C.2     
   7 C7            -1.2483     5.7426    -1.9833 C.2     
   8 N8            -0.8034     4.6736    -0.1181 N.2     
   9 C9            -1.8369     5.4332     0.1038 C.2     
  10 N10           -2.1400     6.1112    -1.0337 N.pl3   
  11 O11            1.0414     4.4633    -3.1964 O.2     
  12 C12           -3.2348     7.0700    -1.2023 C.3     
  13 C13            2.4834     2.4732    -2.0822 C.3     
  14 C14           -0.1915    -0.6297     0.1164 C.ar    
  15 C15           -2.0708     0.8684     0.1880 C.ar    
  16 C16           -1.2000     1.9552     0.1323 C.ar    
  17 C17           -3.5347     1.0905     0.2585 C.ar    
  18 C18           -4.0709     2.0115     1.1626 C.ar    
  19 C19           -5.4435     2.1819     1.1884 C.ar    
  20 N20           -6.1981     1.4728     0.3629 N.ar    
  21 C21           -5.6616     0.6114    -0.4788 C.ar    
  22 N22           -4.3607     0.4196    -0.5426 N.ar    
  23 C23           -1.5578    -0.4303     0.1872 C.ar    
  24 C24            2.0372     1.8323    -3.4070 C.3     
  25 C25            3.4016     2.2523    -3.9788 C.3     
  26 C26            3.4146     3.3664    -2.9188 C.3     
  27 F27           -2.3948    -1.4893     0.2451 F       
  28 C28           -6.0724     3.1620     2.1448 C.3     
  29 F29           -6.1661     4.4164     1.5325 F       
  30 F30           -7.3519     2.7170     2.4944 F       
  31 F31           -5.2832     3.2627     3.2955 F       
  32 H32            1.7318     0.2938     0.0002 H       
  33 H33            0.6317     3.7874     0.4574 H       
  34 H34            2.0216     2.6782     0.5367 H       
  35 H35           -1.2117     6.0958    -3.0032 H       
  36 H36           -2.3694     5.5098     1.0403 H       
  37 H37           -2.8822     8.0713    -0.9549 H       
  38 H38           -3.5783     7.0510    -2.2365 H       
  39 H39           -4.0583     6.8010    -0.5408 H       
  40 H40            3.0125     1.7865    -1.4214 H       
  41 H41            0.2073    -1.6333     0.1077 H       
  42 H42           -1.5909     2.9620     0.1326 H       
  43 H43           -3.4302     2.5755     1.8242 H       
  44 H44           -6.3076     0.0499    -1.1375 H       
  45 H45            1.9030     0.7523    -3.3462 H       
  46 H46            1.1931     2.3391    -3.8746 H       
  47 H47            4.1829     1.5057    -3.8372 H       
  48 H48            3.3504     2.6239    -5.0022 H       
  49 H49            2.9470     4.2925    -3.2530 H       
  50 H50            4.3924     3.5248    -2.4639 H       
@<TRIPOS>BOND
   1    1    2 ar
   2    1    3 1
   3    1   16 ar
   4    2   14 ar
   5    2   32 1
   6    3    4 1
   7    3   33 1
   8    3   34 1
   9    4    5 am
  10    4   13 1
  11    5    6 1
  12    5   11 2
  13    6    7 2
  14    6    8 1
  15    7   10 1
  16    7   35 1
  17    8    9 2
  18    9   10 1
  19    9   36 1
  20   10   12 1
  21   12   37 1
  22   12   38 1
  23   12   39 1
  24   13   24 1
  25   13   26 1
  26   13   40 1
  27   14   23 ar
  28   14   41 1
  29   15   16 ar
  30   15   17 1
  31   15   23 ar
  32   16   42 1
  33   17   18 ar
  34   17   22 ar
  35   18   19 ar
  36   18   43 1
  37   19   20 ar
  38   19   28 1
  39   20   21 ar
  40   21   22 ar
  41   21   44 1
  42   23   27 1
  43   24   25 1
  44   24   45 1
  45   24   46 1
  46   25   26 1
  47   25   47 1
  48   25   48 1
  49   26   49 1
  50   26   50 1
  51   28   29 1
  52   28   30 1
  53   28   31 1

#	End of record

