#	Name: ASD02030603
#	Creating user name:	WinNT
#	Creation time:	15. 06. 2019 20:15

#	Modifying user name:	WinNT
#	Modification time:	15. 06. 2019 20:15

#	Program:	/corina/corina34_cracker 3.40 0067  02.08.2006

@<TRIPOS>MOLECULE
ASD02030603
  61   64    0    0    0
SMALL
NO_CHARGES


@<TRIPOS>ATOM
   1 C1            -0.0277     1.3811     0.0120 C.ar    
   2 C2            -0.0152     0.0026     0.0107 C.ar    
   3 C3             1.1967    -0.6732     0.0052 C.ar    
   4 C4             2.3812     0.0428     0.0069 C.ar    
   5 C5             2.3664     1.4316     0.0147 C.ar    
   6 C6             1.1615     2.0985     0.0082 C.ar    
   7 C7             1.0734     3.6040    -0.0174 C.3     
   8 C8             3.6935     2.1429     0.0452 C.3     
   9 C9             3.5487     3.5856    -0.4362 C.3     
  10 N10            2.3941     4.1809     0.2551 N.am    
  11 C11            0.5921     4.0625    -1.3955 C.3     
  12 O12            1.4505     3.5242    -2.4032 O.3     
  13 C13            1.1598     3.8381    -3.6940 C.ar    
  14 C14            2.5447     5.2155     1.1057 C.2     
  15 O15            3.6576     5.6228     1.3761 O.2     
  16 C16            1.3564     5.8548     1.7098 C.ar    
  17 C17            0.5676     4.4767    -6.3217 C.ar    
  18 C18           -0.2211     4.9707    -5.2933 C.ar    
  19 C19            0.0742     4.6519    -3.9821 C.ar    
  20 C20            1.9522     3.3491    -4.7219 C.ar    
  21 C21            1.6568     3.6680    -6.0331 C.ar    
  22 C22            1.4124     6.3459     3.0148 C.ar    
  23 C23            0.1755     5.9749     0.9752 C.ar    
  24 C24           -0.9299     6.5728     1.5439 C.ar    
  25 C25           -0.8704     7.0537     2.8399 C.ar    
  26 C26            0.2988     6.9424     3.5728 C.ar    
  27 Cl27           0.3655     7.5543     5.1960 Cl      
  28 O28            1.2205    -2.0319    -0.0013 O.3     
  29 C29           -0.0412    -2.7029    -0.0022 C.3     
  30 O30            0.2769     4.7906    -7.6124 O.3     
  31 C31            1.1313     4.2469    -8.6206 C.3     
  32 C32            0.1858    -4.2159    -0.0098 C.3     
  33 C33            0.6507     4.7063    -9.9986 C.3     
  34 H34           -0.9706     1.9078     0.0115 H       
  35 H35           -0.9440    -0.5486     0.0143 H       
  36 H36            3.3247    -0.4828     0.0025 H       
  37 H37            0.3675     3.9390     0.7425 H       
  38 H38            4.0773     2.1422     1.0654 H       
  39 H39            4.3965     1.6180    -0.6017 H       
  40 H40            4.4519     4.1467    -0.1964 H       
  41 H41            3.3800     3.5998    -1.5130 H       
  42 H42           -0.4264     3.7109    -1.5601 H       
  43 H43            0.6130     5.1512    -1.4440 H       
  44 H44           -1.0693     5.6004    -5.5180 H       
  45 H45           -0.5404     5.0359    -3.1814 H       
  46 H46            2.8003     2.7194    -4.4972 H       
  47 H47            2.2709     3.2832    -6.8339 H       
  48 H48            2.3242     6.2594     3.5871 H       
  49 H49            0.1275     5.6007    -0.0368 H       
  50 H50           -1.8438     6.6660     0.9761 H       
  51 H51           -1.7386     7.5216     3.2801 H       
  52 H52           -0.6016    -2.4241     0.8902 H       
  53 H53           -0.6049    -2.4156    -0.8898 H       
  54 H54            2.1518     4.5936    -8.4576 H       
  55 H55            1.1051     3.1584    -8.5709 H       
  56 H56            0.7462    -4.4948    -0.9022 H       
  57 H57            0.7495    -4.5033     0.8778 H       
  58 H58           -0.7766    -4.7277    -0.0105 H       
  59 H59           -0.3698     4.3596   -10.1616 H       
  60 H60            0.6769     5.7948   -10.0483 H       
  61 H61            1.3024     4.2916   -10.7676 H       
@<TRIPOS>BOND
   1    1    2 ar
   2    1    6 ar
   3    1   34 1
   4    2    3 ar
   5    2   35 1
   6    3    4 ar
   7    3   28 1
   8    4    5 ar
   9    4   36 1
  10    5    6 ar
  11    5    8 1
  12    6    7 1
  13    7   10 1
  14    7   11 1
  15    7   37 1
  16    8    9 1
  17    8   38 1
  18    8   39 1
  19    9   10 1
  20    9   40 1
  21    9   41 1
  22   10   14 am
  23   11   12 1
  24   11   42 1
  25   11   43 1
  26   12   13 1
  27   13   20 ar
  28   13   19 ar
  29   14   15 2
  30   14   16 1
  31   16   23 ar
  32   16   22 ar
  33   17   18 ar
  34   17   21 ar
  35   17   30 1
  36   18   19 ar
  37   18   44 1
  38   19   45 1
  39   20   21 ar
  40   20   46 1
  41   21   47 1
  42   22   26 ar
  43   22   48 1
  44   23   24 ar
  45   23   49 1
  46   24   25 ar
  47   24   50 1
  48   25   26 ar
  49   25   51 1
  50   26   27 1
  51   28   29 1
  52   29   32 1
  53   29   52 1
  54   29   53 1
  55   30   31 1
  56   31   33 1
  57   31   54 1
  58   31   55 1
  59   32   56 1
  60   32   57 1
  61   32   58 1
  62   33   59 1
  63   33   60 1
  64   33   61 1

#	End of record

