#	Name: ASD00170771
#	Creating user name:	WinNT
#	Creation time:	15. 06. 2019 18:32

#	Modifying user name:	WinNT
#	Modification time:	15. 06. 2019 18:32

#	Program:	/corina/corina34_cracker 3.40 0067  02.08.2006

@<TRIPOS>MOLECULE
ASD00170771
  57   61    0    0    0
SMALL
NO_CHARGES


@<TRIPOS>ATOM
   1 Cl1            1.3346     3.5783    -4.8020 Cl      
   2 C2             1.0864     4.2211    -3.2086 C.ar    
   3 C3             2.1272     4.2200    -2.2945 C.ar    
   4 C4             1.9363     4.7296    -1.0276 C.ar    
   5 C5             0.6907     5.2475    -0.6668 C.ar    
   6 C6            -0.3545     5.2458    -1.5926 C.ar    
   7 C7            -0.1499     4.7382    -2.8583 C.ar    
   8 C8             0.4794     5.7949     0.6901 C.2     
   9 O9             1.3666     5.7225     1.5207 O.2     
  10 C10           -0.7978     6.4246     1.0354 C.2     
  11 C11           -1.8091     5.7757     1.7017 C.2     
  12 S12           -3.1435     6.8096     1.9348 S.3     
  13 C13           -2.3485     8.1492     1.1274 C.2     
  14 C14           -1.1244     7.7950     0.7166 C.2     
  15 C15           -0.1888     8.7260    -0.0107 C.3     
  16 C16            0.7059     9.4436     1.0020 C.3     
  17 C17            1.6354     8.4286     1.6705 C.3     
  18 C18            1.5418    10.5041     0.2826 C.3     
  19 C19           -0.1648    10.1155     2.0656 C.3     
  20 C20           -2.9467     9.4883     0.9321 C.2     
  21 C21           -2.2365    10.5491     0.5014 C.2     
  22 S22           -3.2865    11.9556     0.3946 S.3     
  23 C23           -4.6636    11.0149     0.9508 C.2     
  24 C24           -4.2942     9.7563     1.1730 C.2     
  25 N25           -1.7518     4.4561     2.1271 N.am    
  26 C26           -1.1985     4.0531     3.2852 C.2     
  27 O27           -0.6781     4.7753     4.1112 O.2     
  28 C28           -1.3308     2.5845     3.3843 C.ar    
  29 C29           -1.9945     2.1768     2.2091 C.ar    
  30 C30           -2.2473     3.4122     1.4383 C.2     
  31 O31           -2.8032     3.4738     0.3604 O.2     
  32 C32           -2.2698     0.8343     2.0036 C.ar    
  33 C33           -1.8901    -0.0986     2.9560 C.ar    
  34 C34           -1.2398     0.3012     4.1085 C.ar    
  35 C35           -0.9570     1.6405     4.3273 C.ar    
  36 H36            3.0900     3.8189    -2.5746 H       
  37 H37            2.7484     4.7279    -0.3156 H       
  38 H38           -1.3202     5.6446    -1.3191 H       
  39 H39           -0.9576     4.7364    -3.5752 H       
  40 H40            0.4305     8.1528    -0.7006 H       
  41 H41           -0.7688     9.4614    -0.5683 H       
  42 H42            2.2557     7.9499     0.9128 H       
  43 H43            2.2728     8.9398     2.3920 H       
  44 H44            1.0399     7.6731     2.1830 H       
  45 H45            0.8796    11.2271    -0.1936 H       
  46 H46            2.1792    11.0152     1.0041 H       
  47 H47            2.1621    10.0253    -0.4751 H       
  48 H48           -1.0059     9.4666     2.3097 H       
  49 H49            0.4291    10.2933     2.9622 H       
  50 H50           -0.5379    11.0654     1.6827 H       
  51 H51           -1.1840    10.5375     0.2594 H       
  52 H52           -5.6630    11.4008     1.0879 H       
  53 H53           -4.9836     9.0012     1.5210 H       
  54 H54           -2.7783     0.5163     1.1055 H       
  55 H55           -2.1043    -1.1451     2.7967 H       
  56 H56           -0.9497    -0.4351     4.8433 H       
  57 H57           -0.4487     1.9470     5.2296 H       
@<TRIPOS>BOND
   1    1    2 1
   2    2    3 ar
   3    2    7 ar
   4    3    4 ar
   5    3   36 1
   6    4    5 ar
   7    4   37 1
   8    5    6 ar
   9    5    8 1
  10    6    7 ar
  11    6   38 1
  12    7   39 1
  13    8    9 2
  14    8   10 1
  15   10   11 2
  16   10   14 1
  17   11   12 1
  18   11   25 1
  19   12   13 1
  20   13   14 2
  21   13   20 1
  22   14   15 1
  23   15   16 1
  24   15   40 1
  25   15   41 1
  26   16   17 1
  27   16   18 1
  28   16   19 1
  29   17   42 1
  30   17   43 1
  31   17   44 1
  32   18   45 1
  33   18   46 1
  34   18   47 1
  35   19   48 1
  36   19   49 1
  37   19   50 1
  38   20   21 2
  39   20   24 1
  40   21   22 1
  41   21   51 1
  42   22   23 1
  43   23   24 2
  44   23   52 1
  45   24   53 1
  46   25   26 am
  47   25   30 am
  48   26   27 2
  49   26   28 1
  50   28   29 ar
  51   28   35 ar
  52   29   30 1
  53   29   32 ar
  54   30   31 2
  55   32   33 ar
  56   32   54 1
  57   33   34 ar
  58   33   55 1
  59   34   35 ar
  60   34   56 1
  61   35   57 1

#	End of record

