#	Name: ASD01170003
#	Creating user name:	WinNT
#	Creation time:	15. 06. 2019 19:06

#	Modifying user name:	WinNT
#	Modification time:	15. 06. 2019 19:06

#	Program:	/corina/corina34_cracker 3.40 0067  02.08.2006

@<TRIPOS>MOLECULE
ASD01170003
  39   42    0    0    0
SMALL
NO_CHARGES


@<TRIPOS>ATOM
   1 C1            -0.0167     1.3782     0.0096 C.ar    
   2 C2             0.0021    -0.0041     0.0020 C.ar    
   3 C3            -1.1786    -0.7181     0.0094 C.ar    
   4 C4            -2.4009    -0.0494     0.0246 C.ar    
   5 C5            -2.4074     1.3398     0.0321 C.ar    
   6 C6            -1.2277     2.0505     0.0306 C.ar    
   7 Br7           -1.2612     3.9412     0.0409 Br      
   8 H8             0.9463    -0.5281    -0.0101 H       
   9 H9            -1.1553    -1.7979     0.0030 H       
  10 N10           -3.7078    -0.5379     0.0344 N.am    
  11 C11           -4.6197     0.4489     0.0484 C.2     
  12 C12           -3.8596     1.7582     0.0482 C.3     
  13 O13           -4.1519     2.5070     1.2297 O.3     
  14 C14           -4.1964     2.5734    -1.2019 C.3     
  15 O15           -5.8252     0.3158     0.0591 O.2     
  16 C16           -5.6684     2.8963    -1.2095 C.2     
  17 C17           -6.2435     3.6761    -2.3132 C.ar    
  18 O18           -6.3783     2.5120    -0.3041 O.2     
  19 C19           -7.6109     3.9773    -2.3226 C.ar    
  20 C20           -8.1463     4.7109    -3.3619 C.ar    
  21 C21           -7.3249     5.1512    -4.4017 C.ar    
  22 C22           -5.9679     4.8521    -4.3921 C.ar    
  23 C23           -5.4252     4.1257    -3.3565 C.ar    
  24 O24           -9.4217     5.1324    -3.6068 O.3     
  25 C25           -9.2980     6.1778    -4.5890 C.3     
  26 O26           -8.0873     5.8453    -5.2933 O.3     
  27 C27            1.2768     2.1515     0.0014 C.3     
  28 H28           -3.9324    -1.4815     0.0312 H       
  29 H29           -5.0834     2.7500     1.3209 H       
  30 H30           -3.6214     3.4994    -1.1976 H       
  31 H31           -3.9468     1.9948    -2.0912 H       
  32 H32           -8.2456     3.6360    -1.5182 H       
  33 H33           -5.3359     5.1946    -5.1981 H       
  34 H34           -4.3700     3.8955    -3.3530 H       
  35 H35          -10.1508     6.1682    -5.2679 H       
  36 H36           -9.2043     7.1495    -4.1042 H       
  37 H37            1.5788     2.3434    -1.0282 H       
  38 H38            1.1369     3.0990     0.5217 H       
  39 H39            2.0502     1.5713     0.5048 H       
@<TRIPOS>BOND
   1    1    2 ar
   2    1   27 1
   3    1    6 ar
   4    2    3 ar
   5    2    8 1
   6    3    4 ar
   7    3    9 1
   8    4    5 ar
   9    4   10 1
  10    5    6 ar
  11    5   12 1
  12    6    7 1
  13   10   11 am
  14   10   28 1
  15   11   12 1
  16   11   15 2
  17   12   13 1
  18   12   14 1
  19   13   29 1
  20   14   16 1
  21   14   30 1
  22   14   31 1
  23   16   17 1
  24   16   18 2
  25   17   19 ar
  26   17   23 ar
  27   19   20 ar
  28   19   32 1
  29   20   21 ar
  30   20   24 1
  31   21   22 ar
  32   21   26 1
  33   22   23 ar
  34   22   33 1
  35   23   34 1
  36   24   25 1
  37   25   26 1
  38   25   35 1
  39   25   36 1
  40   27   37 1
  41   27   38 1
  42   27   39 1

#	End of record

