#	Name: ASD02030454
#	Creating user name:	WinNT
#	Creation time:	15. 06. 2019 20:15

#	Modifying user name:	WinNT
#	Modification time:	15. 06. 2019 20:15

#	Program:	/corina/corina34_cracker 3.40 0067  02.08.2006

@<TRIPOS>MOLECULE
ASD02030454
  54   56    0    0    0
SMALL
NO_CHARGES


@<TRIPOS>ATOM
   1 C1            -0.0144     1.2113     0.0087 C.2     
   2 O2             0.0739    -0.0006     0.0400 O.2     
   3 N3             1.0975     1.9654    -0.0979 N.am    
   4 C4             2.4337     1.3566    -0.0123 C.3     
   5 C5             3.2564     1.8162    -1.2206 C.3     
   6 N6             3.2455     3.2836    -1.2868 N.3     
   7 C7             1.8859     3.7974    -1.5000 C.3     
   8 C8             1.0070     3.4181    -0.3092 C.3     
   9 C9             4.6971     1.3223    -1.0750 C.3     
  10 C10            2.6466     1.2428    -2.5014 C.3     
  11 C11           -2.5555     3.8239     0.3056 C.ar    
  12 N12           -1.4167     3.1835     0.2329 N.ar    
  13 C13           -1.3427     1.8583     0.0815 C.ar    
  14 C14           -2.4818     1.0776    -0.0091 C.ar    
  15 C15           -3.7356     1.7094     0.0621 C.ar    
  16 C16           -4.9378     0.9915    -0.0203 C.ar    
  17 C17           -6.1238     1.6584     0.0559 C.ar    
  18 C18           -6.1595     3.0419     0.2145 C.ar    
  19 C19           -5.0109     3.7705     0.2981 C.ar    
  20 C20           -3.7712     3.1193     0.2237 C.ar    
  21 C21           -2.5655     5.3204     0.4828 C.3     
  22 C22           -1.8948     5.8879     1.7354 C.3     
  23 C23           -1.2278     6.0542     0.3685 C.3     
  24 H24            2.9236     1.6766     0.9073 H       
  25 H25            2.3425     0.2705    -0.0231 H       
  26 H26            3.6585     3.6860    -0.4588 H       
  27 H27            1.9184     4.8824    -1.5988 H       
  28 H28            1.4706     3.3613    -2.4085 H       
  29 H29           -0.0269     3.6943    -0.5162 H       
  30 H30            1.3571     3.9401     0.5814 H       
  31 H31            4.7046     0.2335    -1.0235 H       
  32 H32            5.2820     1.6494    -1.9346 H       
  33 H33            5.1313     1.7321    -0.1630 H       
  34 H34            1.6206     1.5960    -2.6050 H       
  35 H35            3.2320     1.5699    -3.3606 H       
  36 H36            2.6526     0.1540    -2.4508 H       
  37 H37           -2.4091     0.0071    -0.1320 H       
  38 H38           -4.9236    -0.0813    -0.1437 H       
  39 H39           -7.0497     1.1061    -0.0079 H       
  40 H40           -7.1132     3.5455     0.2717 H       
  41 H41           -5.0551     4.8427     0.4206 H       
  42 H42           -3.4537     5.8318     0.1120 H       
  43 H43           -2.3416     6.7729     2.1884 H       
  44 H44           -1.4464     5.1788     2.4313 H       
  45 H45           -0.3406     5.4546     0.1652 H       
  46 H46           -1.2358     7.0486    -0.0777 H       
  47 C47           11.4535    14.0369     8.5781 C.2     
  48 C48           11.4739    12.5300     8.5698 C.3     
  49 O49           12.4915    14.6552     8.5715 O.2     
  50 O50           10.2820    14.6921     8.5872 O.3     
  51 F51           12.7990    12.0817     8.5548 F       
  52 F52           10.8317    12.0486     9.7157 F       
  53 F53           10.8099    12.0609     7.4313 F       
  54 H54           10.3195    15.6584     8.5923 H       
@<TRIPOS>BOND
   1    1    2 2
   2    1    3 am
   3    1   13 1
   4    3    4 1
   5    3    8 1
   6    4    5 1
   7    4   24 1
   8    4   25 1
   9    5    6 1
  10    5    9 1
  11    5   10 1
  12    6    7 1
  13    6   26 1
  14    7    8 1
  15    7   27 1
  16    7   28 1
  17    8   29 1
  18    8   30 1
  19    9   31 1
  20    9   32 1
  21    9   33 1
  22   10   34 1
  23   10   35 1
  24   10   36 1
  25   11   12 ar
  26   11   20 ar
  27   11   21 1
  28   12   13 ar
  29   13   14 ar
  30   14   15 ar
  31   14   37 1
  32   15   16 ar
  33   15   20 ar
  34   16   17 ar
  35   16   38 1
  36   17   18 ar
  37   17   39 1
  38   18   19 ar
  39   18   40 1
  40   19   20 ar
  41   19   41 1
  42   21   22 1
  43   21   23 1
  44   21   42 1
  45   22   23 1
  46   22   43 1
  47   22   44 1
  48   23   45 1
  49   23   46 1
  50   47   48 1
  51   47   49 2
  52   47   50 1
  53   48   51 1
  54   48   52 1
  55   48   53 1
  56   50   54 1

#	End of record

