#	Name: ASD00170283
#	Creating user name:	WinNT
#	Creation time:	15. 06. 2019 18:31

#	Modifying user name:	WinNT
#	Modification time:	15. 06. 2019 18:31

#	Program:	/corina/corina34_cracker 3.40 0067  02.08.2006

@<TRIPOS>MOLECULE
ASD00170283
  27   29    0    0    0
SMALL
NO_CHARGES


@<TRIPOS>ATOM
   1 C1            -0.0049     1.3712    -0.0028 C.2     
   2 C2             0.0072     0.0043    -0.0013 C.2     
   3 C3            -1.3303    -0.5836     0.0213 C.2     
   4 C4            -2.2892     0.3364     0.0360 C.2     
   5 S5            -1.6003     1.9596     0.0301 S.3     
   6 C6             1.2370    -0.7909    -0.0212 C.2     
   7 C7             1.7827    -1.2721    -1.3028 C.2     
   8 O8             1.8089    -1.0546     1.0217 O.2     
   9 N9             1.1247     2.1662    -0.0222 N.pl3   
  10 C10            1.1493    -1.1104    -2.4951 C.2     
  11 S11            2.0646    -1.7865    -3.7641 S.3     
  12 C12            3.3368    -2.3036    -2.6712 C.2     
  13 C13            3.0476    -1.9581    -1.4220 C.2     
  14 C14           -1.9403    -1.9826     0.0329 C.3     
  15 C15           -3.3940    -1.7775     0.5039 C.3     
  16 C16           -3.6620    -0.3254     0.0598 C.3     
  17 H17            2.0039     1.7611     0.0392 H       
  18 H18            1.0386     3.1294    -0.0974 H       
  19 H19            0.1951    -0.6203    -2.6209 H       
  20 H20            4.2324    -2.8262    -2.9732 H       
  21 H21            3.6892    -2.1744    -0.5806 H       
  22 H22           -1.9233    -2.4118    -0.9689 H       
  23 H23           -1.4028    -2.6247     0.7306 H       
  24 H24           -4.0688    -2.4705     0.0014 H       
  25 H25           -3.4713    -1.8755     1.5867 H       
  26 H26           -4.3124     0.1763     0.7762 H       
  27 H27           -4.1080    -0.3092    -0.9347 H       
@<TRIPOS>BOND
   1    1    2 2
   2    1    9 1
   3    1    5 1
   4    2    3 1
   5    2    6 1
   6    3    4 2
   7    3   14 1
   8    4    5 1
   9    4   16 1
  10    6    7 1
  11    6    8 2
  12    7   10 2
  13    7   13 1
  14    9   17 1
  15    9   18 1
  16   10   11 1
  17   10   19 1
  18   11   12 1
  19   12   13 2
  20   12   20 1
  21   13   21 1
  22   14   15 1
  23   14   22 1
  24   14   23 1
  25   15   16 1
  26   15   24 1
  27   15   25 1
  28   16   26 1
  29   16   27 1

#	End of record

