#	Name: ASD00843634
#	Creating user name:	WinNT
#	Creation time:	15. 06. 2019 18:47

#	Modifying user name:	WinNT
#	Modification time:	15. 06. 2019 18:47

#	Program:	/corina/corina34_cracker 3.40 0067  02.08.2006

@<TRIPOS>MOLECULE
ASD00843634
  88   93    0    0    0
SMALL
NO_CHARGES


@<TRIPOS>ATOM
   1 F1             5.6885    -2.5250    -1.9534 F       
   2 N2             0.9327     1.0797    -0.2964 N.ar    
   3 C3             1.0958    -0.2052    -0.5636 C.ar    
   4 C4             0.9416    -1.1606     0.4331 C.ar    
   5 C5             0.6141    -0.7508     1.7136 C.ar    
   6 C6             0.4517     0.6070     1.9530 C.ar    
   7 C7             0.6204     1.5008     0.9146 C.ar    
   8 C8             1.1279    -2.6237     0.1238 C.3     
   9 C9             0.7686    -3.4699     1.3265 C.2     
  10 C10            0.2828    -3.0261    -1.0865 C.3     
  11 C11           -1.1561    -2.6517    -0.8413 C.2     
  12 N12           -2.1060    -3.0087    -1.7283 N.am    
  13 O13           -1.4595    -2.0291     0.1543 O.2     
  14 C14           -3.4939    -2.5565    -1.5616 C.3     
  15 C15           -4.4172    -3.7786    -1.5884 C.3     
  16 C16           -4.1655    -4.5751    -2.8707 C.3     
  17 C17           -2.7156    -5.0645    -2.8928 C.3     
  18 C18           -1.7719    -3.8524    -2.8839 C.3     
  19 N19           -5.0725    -5.7297    -2.9157 N.3     
  20 C20           -4.9426    -6.4523    -4.1887 C.3     
  21 C21           -5.8429    -7.6897    -4.1641 C.3     
  22 N22           -7.2344    -7.2754    -3.9366 N.3     
  23 C23           -7.3644    -6.5529    -2.6636 C.3     
  24 C24           -6.4640    -5.3154    -2.6882 C.3     
  25 H25           -7.5760    -6.7181    -4.7053 H       
  26 O26           -0.3158    -3.5310     1.8662 O.2     
  27 N27            1.8766    -4.1410     1.6834 N.am    
  28 C28            2.5875    -2.9316    -0.1200 C.ar    
  29 C29            2.9619    -3.8478     0.8550 C.ar    
  30 C30            3.4931    -2.4883    -1.0576 C.ar    
  31 C31            4.7968    -2.9571    -1.0351 C.ar    
  32 C32            5.1826    -3.8717    -0.0669 C.ar    
  33 C33            4.2735    -4.3164     0.8737 C.ar    
  34 F34            6.4533    -4.3302    -0.0433 F       
  35 C35            1.5325    -6.7913     2.3409 C.ar    
  36 C36            0.2587    -7.0342     1.8474 C.ar    
  37 C37            2.4780    -7.7992     2.3425 C.ar    
  38 C38            2.1578    -9.0507     1.8527 C.ar    
  39 C39            0.8849    -9.2987     1.3580 C.ar    
  40 C40           -0.0653    -8.2895     1.3557 C.ar    
  41 O41            0.5704   -10.5300     0.8767 O.3     
  42 O42           -0.6708    -6.0428     1.8465 O.3     
  43 C43           -1.9613    -6.3639     1.3235 C.3     
  44 C44            1.5986   -11.5218     0.9104 C.3     
  45 O45            1.4163    -0.5941    -1.8233 O.3     
  46 C46            1.5133     0.4312    -2.8139 C.3     
  47 C47            1.9822    -0.1796    -4.1360 C.3     
  48 F48            3.1939    -0.8498    -3.9363 F       
  49 F49            1.0202    -1.0836    -4.5992 F       
  50 S50            1.9472    -5.1943     2.9593 S.o2    
  51 O51            3.3114    -5.2579     3.3521 O.2     
  52 O52            0.9000    -4.8226     3.8449 O.2     
  53 H53            0.4875    -1.4709     2.5085 H       
  54 H54            0.1957     0.9602     2.9410 H       
  55 H55            0.4955     2.5582     1.0957 H       
  56 H56            0.6474    -2.5071    -1.9730 H       
  57 H57            0.3571    -4.1028    -1.2396 H       
  58 H58           -3.5980    -2.0408    -0.6069 H       
  59 H59           -3.7583    -1.8808    -2.3750 H       
  60 H60           -4.2123    -4.4084    -0.7227 H       
  61 H61           -5.4563    -3.4502    -1.5622 H       
  62 H62           -4.3467    -3.9373    -3.7358 H       
  63 H63           -2.5267    -5.6823    -2.0149 H       
  64 H64           -2.5435    -5.6514    -3.7951 H       
  65 H65           -1.8973    -3.2848    -3.8059 H       
  66 H66           -0.7400    -4.1933    -2.7997 H       
  67 H67           -5.2428    -5.8004    -5.0091 H       
  68 H68           -3.9061    -6.7594    -4.3284 H       
  69 H69           -5.7702    -8.2114    -5.1184 H       
  70 H70           -5.5254    -8.3545    -3.3607 H       
  71 H71           -8.4008    -6.2458    -2.5239 H       
  72 H72           -7.0642    -7.2047    -1.8432 H       
  73 H73           -6.5368    -4.7938    -1.7339 H       
  74 H74           -6.7815    -4.6507    -3.4916 H       
  75 H75            3.1876    -1.7761    -1.8098 H       
  76 H76            4.5806    -5.0286     1.6253 H       
  77 H77            3.4690    -7.6082     2.7270 H       
  78 H78            2.8986    -9.8365     1.8543 H       
  79 H79           -1.0564    -8.4807     0.9715 H       
  80 H80           -2.6054    -5.4864     1.3814 H       
  81 H81           -1.8646    -6.6757     0.2835 H       
  82 H82           -2.3983    -7.1745     1.9067 H       
  83 H83            1.2163   -12.4556     0.4981 H       
  84 H84            2.4488   -11.1841     0.3178 H       
  85 H85            1.9149   -11.6823     1.9411 H       
  86 H86            0.5368     0.8947    -2.9539 H       
  87 H87            2.2299     1.1850    -2.4876 H       
  88 H88            2.1217     0.6116    -4.8726 H       
@<TRIPOS>BOND
   1    1   31 1
   2    2    3 ar
   3    2    7 ar
   4    3    4 ar
   5    3   45 1
   6    4    5 ar
   7    4    8 1
   8    5    6 ar
   9    5   53 1
  10    6    7 ar
  11    6   54 1
  12    7   55 1
  13    8    9 1
  14    8   10 1
  15    8   28 1
  16    9   26 2
  17    9   27 am
  18   10   11 1
  19   10   56 1
  20   10   57 1
  21   11   12 am
  22   11   13 2
  23   12   14 1
  24   12   18 1
  25   14   15 1
  26   14   58 1
  27   14   59 1
  28   15   16 1
  29   15   60 1
  30   15   61 1
  31   16   17 1
  32   16   19 1
  33   16   62 1
  34   17   18 1
  35   17   63 1
  36   17   64 1
  37   18   65 1
  38   18   66 1
  39   19   20 1
  40   19   24 1
  41   20   21 1
  42   20   67 1
  43   20   68 1
  44   21   22 1
  45   21   69 1
  46   21   70 1
  47   22   23 1
  48   22   25 1
  49   23   24 1
  50   23   71 1
  51   23   72 1
  52   24   73 1
  53   24   74 1
  54   27   50 am
  55   27   29 1
  56   28   29 ar
  57   28   30 ar
  58   29   33 ar
  59   30   31 ar
  60   30   75 1
  61   31   32 ar
  62   32   33 ar
  63   32   34 1
  64   33   76 1
  65   35   36 ar
  66   35   37 ar
  67   35   50 1
  68   36   42 1
  69   36   40 ar
  70   37   38 ar
  71   37   77 1
  72   38   39 ar
  73   38   78 1
  74   39   40 ar
  75   39   41 1
  76   40   79 1
  77   41   44 1
  78   42   43 1
  79   43   80 1
  80   43   81 1
  81   43   82 1
  82   44   83 1
  83   44   84 1
  84   44   85 1
  85   45   46 1
  86   46   47 1
  87   46   86 1
  88   46   87 1
  89   47   48 1
  90   47   49 1
  91   47   88 1
  92   50   51 2
  93   50   52 2

#	End of record

