#	Name: ASD01940310
#	Creating user name:	WinNT
#	Creation time:	15. 06. 2019 20:12

#	Modifying user name:	WinNT
#	Modification time:	15. 06. 2019 20:12

#	Program:	/corina/corina34_cracker 3.40 0067  02.08.2006

@<TRIPOS>MOLECULE
ASD01940310
  15   15    0    0    0
SMALL
NO_CHARGES


@<TRIPOS>ATOM
   1 C1            -0.0188     1.5336     0.0105 C.3     
   2 C2             0.0021    -0.0041     0.0020 C.3     
   3 C3             1.3941     0.0896     0.6488 C.3     
   4 C4             1.5179     1.4762    -0.0045 C.3     
   5 S5            -0.7335     2.2589    -1.4908 S.o2    
   6 O6            -0.7205     3.6777    -1.4140 O.2     
   7 O7            -0.2570     1.5833    -2.6465 O.2     
   8 Cl8           -2.6922     1.7732    -1.4019 Cl      
   9 H9            -0.4309     1.9596     0.9252 H       
  10 H10           -0.7506    -0.4545     0.6490 H       
  11 H11            0.0139    -0.4351    -0.9991 H       
  12 H12            1.3682     0.1209     1.7381 H       
  13 H13            2.1053    -0.6404     0.2621 H       
  14 H14            1.9441     1.4499    -1.0074 H       
  15 H15            1.9889     2.2208     0.6373 H       
@<TRIPOS>BOND
   1    1    2 1
   2    1    4 1
   3    1    5 1
   4    1    9 1
   5    2    3 1
   6    2   10 1
   7    2   11 1
   8    3    4 1
   9    3   12 1
  10    3   13 1
  11    4   14 1
  12    4   15 1
  13    5    6 2
  14    5    7 2
  15    5    8 1

#	End of record

