#	Name: ASD01200389
#	Creating user name:	WinNT
#	Creation time:	15. 06. 2019 19:09

#	Modifying user name:	WinNT
#	Modification time:	15. 06. 2019 19:09

#	Program:	/corina/corina34_cracker 3.40 0067  02.08.2006

@<TRIPOS>MOLECULE
ASD01200389
  26   27    0    0    0
SMALL
NO_CHARGES


@<TRIPOS>ATOM
   1 C1            -0.0167     1.3834     0.0096 C.ar    
   2 C2             0.0021    -0.0041     0.0020 C.ar    
   3 C3             1.2067    -0.6782    -0.0126 C.ar    
   4 C4             2.3996     0.0324    -0.0202 C.ar    
   5 C5             2.3802     1.4204    -0.0130 C.ar    
   6 C6             1.1748     2.0938     0.0021 C.ar    
   7 O7            -1.2032     2.0468     0.0189 O.3     
   8 N8             3.6240    -0.6522    -0.0346 N.pl3   
   9 N9             3.7909    -2.0431    -0.0432 N.2     
  10 C10            5.0741    -2.3013    -0.0567 C.2     
  11 C11            5.7654    -1.0851    -0.0572 C.2     
  12 C12            4.8518    -0.0865    -0.0486 C.2     
  13 C13            7.2629    -0.9166    -0.0707 C.3     
  14 F14            7.8737    -2.1751    -0.0835 F       
  15 F15            7.6416    -0.2028    -1.2128 F       
  16 F16            7.6636    -0.2153     1.0716 F       
  17 C17           -1.2927    -0.7751     0.0102 C.3     
  18 H18            1.2212    -1.7581    -0.0178 H       
  19 H19            3.3078     1.9735    -0.0185 H       
  20 H20            1.1596     3.1736     0.0077 H       
  21 H21           -1.5424     2.2340     0.9049 H       
  22 H22            5.5220    -3.2840    -0.0656 H       
  23 H23            5.0653     0.9722    -0.0505 H       
  24 H24           -1.6147    -0.9555    -1.0154 H       
  25 H25           -1.1447    -1.7284     0.5175 H       
  26 H26           -2.0553    -0.1991     0.5344 H       
@<TRIPOS>BOND
   1    1    2 ar
   2    1    6 ar
   3    1    7 1
   4    2    3 ar
   5    2   17 1
   6    3    4 ar
   7    3   18 1
   8    4    5 ar
   9    4    8 1
  10    5    6 ar
  11    5   19 1
  12    6   20 1
  13    7   21 1
  14    8    9 1
  15    8   12 1
  16    9   10 2
  17   10   11 1
  18   10   22 1
  19   11   12 2
  20   11   13 1
  21   12   23 1
  22   13   14 1
  23   13   15 1
  24   13   16 1
  25   17   24 1
  26   17   25 1
  27   17   26 1

#	End of record

