#	Name: ASD08710006
#	Creating user name:	WinNT
#	Creation time:	15. 06. 2019 21:19

#	Modifying user name:	WinNT
#	Modification time:	15. 06. 2019 21:19

#	Program:	/corina/corina34_cracker 3.40 0067  02.08.2006

@<TRIPOS>MOLECULE
ASD08710006
  50   51    0    0    0
SMALL
NO_CHARGES


@<TRIPOS>ATOM
   1 C1            -0.1163     1.3427     0.1723 C.3     
   2 C2             0.0813    -0.1781     0.1545 C.3     
   3 N3             1.1943     1.9884     0.0137 N.am    
   4 C4             2.0216     1.6359    -1.1487 C.3     
   5 C5             2.2192     0.1151    -1.1665 C.3     
   6 N6             0.9086    -0.5306    -1.0079 N.am    
   7 S7             0.3738    -1.6361    -2.1189 S.o2    
   8 C8             1.6296     2.8881     0.9179 C.2     
   9 O9             2.8323     3.4725     0.7609 O.3     
  10 O10            0.9365     3.1719     1.8748 O.2     
  11 C11           -1.2783    -0.8714     0.0463 C.3     
  12 O12           -1.0444    -1.5475    -2.1224 O.2     
  13 O13            1.1670    -1.4507    -3.2833 O.2     
  14 C14            0.7709    -3.2357    -1.4958 C.ar    
  15 C15           -0.1325    -3.9095    -0.6954 C.ar    
  16 C16            1.9835    -3.8192    -1.8121 C.ar    
  17 C17            2.2950    -5.0741    -1.3233 C.ar    
  18 C18            1.3942    -5.7454    -0.5179 C.ar    
  19 C19            0.1790    -5.1645    -0.2066 C.ar    
  20 C20            3.2364     4.4316     1.7733 C.3     
  21 C21            3.2898     3.7411     3.1376 C.3     
  22 C22            4.6201     4.9857     1.4277 C.3     
  23 C23            2.2252     5.5788     1.8216 C.3     
  24 C24            1.7336    -7.1137     0.0146 C.3     
  25 F25            2.3830    -6.9866     1.2472 F       
  26 F26            0.5583    -7.8541     0.1809 F       
  27 F27            2.5745    -7.7708    -0.8900 F       
  28 H28           -0.7704     1.6362    -0.6488 H       
  29 H29           -0.5596     1.6429     1.1217 H       
  30 H30            0.5805    -0.4929     1.0709 H       
  31 H31            1.5197     1.9503    -2.0638 H       
  32 H32            2.9902     2.1298    -1.0716 H       
  33 H33            2.6625    -0.1851    -2.1159 H       
  34 H34            2.8734    -0.1784    -0.3454 H       
  35 H35           -1.8369    -0.4475    -0.7882 H       
  36 H36           -1.1299    -1.9383    -0.1204 H       
  37 H37           -1.8367    -0.7223     0.9704 H       
  38 H38           -1.0816    -3.4554    -0.4517 H       
  39 H39            2.6873    -3.2947    -2.4413 H       
  40 H40            3.2421    -5.5303    -1.5709 H       
  41 H41           -0.5248    -5.6889     0.4226 H       
  42 H42            4.0102     2.9239     3.1032 H       
  43 H43            3.5931     4.4611     3.8977 H       
  44 H44            2.3041     3.3464     3.3839 H       
  45 H45            4.5820     5.4776     0.4557 H       
  46 H46            4.9234     5.7057     2.1877 H       
  47 H47            5.3405     4.1684     1.3933 H       
  48 H48            1.2395     5.1841     2.0679 H       
  49 H49            2.5285     6.2988     2.5816 H       
  50 H50            2.1871     6.0707     0.8497 H       
@<TRIPOS>BOND
   1    1    2 1
   2    1    3 1
   3    1   28 1
   4    1   29 1
   5    2   11 1
   6    2    6 1
   7    2   30 1
   8    3    4 1
   9    3    8 am
  10    4    5 1
  11    4   31 1
  12    4   32 1
  13    5    6 1
  14    5   33 1
  15    5   34 1
  16    6    7 am
  17    7   12 2
  18    7   13 2
  19    7   14 1
  20    8    9 1
  21    8   10 2
  22    9   20 1
  23   11   35 1
  24   11   36 1
  25   11   37 1
  26   14   15 ar
  27   14   16 ar
  28   15   19 ar
  29   15   38 1
  30   16   17 ar
  31   16   39 1
  32   17   18 ar
  33   17   40 1
  34   18   19 ar
  35   18   24 1
  36   19   41 1
  37   20   21 1
  38   20   22 1
  39   20   23 1
  40   21   42 1
  41   21   43 1
  42   21   44 1
  43   22   45 1
  44   22   46 1
  45   22   47 1
  46   23   48 1
  47   23   49 1
  48   23   50 1
  49   24   25 1
  50   24   26 1
  51   24   27 1

#	End of record

