#	Name: ASD00070023
#	Creating user name:	WinNT
#	Creation time:	15. 06. 2019 18:29

#	Modifying user name:	WinNT
#	Modification time:	15. 06. 2019 18:29

#	Program:	/corina/corina34_cracker 3.40 0067  02.08.2006

@<TRIPOS>MOLECULE
ASD00070023
  72   76    0    0    0
SMALL
NO_CHARGES


@<TRIPOS>ATOM
   1 C1            -0.0187     1.5267     0.0104 C.3     
   2 C2             0.0021    -0.0041     0.0020 C.3     
   3 C3             0.7956    -0.5028     1.2136 C.3     
   4 C4             2.2039     0.0979     1.1702 C.3     
   5 C5             2.0981     1.6247     1.1335 C.3     
   6 O6             1.3225     2.0200     0.0003 O.3     
   7 C7            -1.4093    -0.5273     0.0743 C.2     
   8 O8            -1.7472    -1.2346     0.9997 O.2     
   9 N9            -2.2961    -0.2091    -0.8895 N.am    
  10 C10           -3.6682    -0.7177    -0.8192 C.3     
  11 C11           -4.5990     0.2173    -1.5940 C.3     
  12 C12           -6.0320    -0.3139    -1.5206 C.3     
  13 C13           -6.0889    -1.7141    -2.1348 C.3     
  14 C14           -5.1581    -2.6491    -1.3600 C.3     
  15 C15           -3.7252    -2.1179    -1.4334 C.3     
  16 C16           -7.5219    -2.2452    -2.0614 C.3     
  17 C17           -7.6049    -3.5904    -2.7857 C.3     
  18 N18           -8.9807    -4.1004    -2.7153 N.3     
  19 C19           -9.1564    -5.2637    -3.5940 C.3     
  20 C20          -10.6298    -5.6772    -3.6068 C.3     
  21 C21          -11.0712    -6.0196    -2.1812 C.3     
  22 C22          -10.8328    -4.8075    -1.2765 C.3     
  23 C23           -9.3535    -4.4193    -1.3312 C.3     
  24 O24          -14.4775    -9.2302    -1.3080 O.3     
  25 C25          -13.3085    -9.6562    -0.5878 C.3     
  26 C26          -12.1821    -8.8160    -1.2348 C.3     
  27 C27          -12.9470    -7.6137    -1.7533 C.ar    
  28 C28          -14.2934    -7.9561    -1.7507 C.ar    
  29 C29          -12.5369    -6.3698    -2.1782 C.ar    
  30 C30          -13.4713    -5.4411    -2.6022 C.ar    
  31 C31          -14.8147    -5.7675    -2.5969 C.ar    
  32 C32          -15.2275    -7.0144    -2.1745 C.ar    
  33 H33           -0.5456     1.8879    -0.8727 H       
  34 H34           -0.5286     1.8784     0.9073 H       
  35 H35            0.4759    -0.3569    -0.9140 H       
  36 H36            0.2947    -0.1921     2.1305 H       
  37 H37            0.8619    -1.5904     1.1834 H       
  38 H38            2.7578    -0.2076     2.0579 H       
  39 H39            2.7222    -0.2529     0.2777 H       
  40 H40            1.6159     1.9777     2.0451 H       
  41 H41            3.0962     2.0566     1.0594 H       
  42 H42           -2.0259     0.3566    -1.6296 H       
  43 H43           -3.9854    -0.7648     0.2226 H       
  44 H44           -4.5584     1.2148    -1.1564 H       
  45 H45           -4.2819     0.2643    -2.6358 H       
  46 H46           -6.3491    -0.3609    -0.4788 H       
  47 H47           -6.6951     0.3522    -2.0726 H       
  48 H48           -5.7718    -1.6670    -3.1766 H       
  49 H49           -5.4753    -2.6961    -0.3182 H       
  50 H50           -5.1987    -3.6466    -1.7976 H       
  51 H51           -3.4080    -2.0708    -2.4752 H       
  52 H52           -3.0621    -2.7840    -0.8814 H       
  53 H53           -7.8078    -2.3763    -1.0178 H       
  54 H54           -8.1977    -1.5343    -2.5368 H       
  55 H55           -7.3190    -3.4593    -3.8294 H       
  56 H56           -6.9291    -4.3013    -2.3104 H       
  57 H57           -8.8428    -5.0055    -4.6055 H       
  58 H58           -8.5501    -6.0915    -3.2262 H       
  59 H59          -11.2352    -4.8546    -3.9876 H       
  60 H60          -10.7572    -6.5502    -4.2469 H       
  61 H61          -10.4925    -6.8673    -1.8144 H       
  62 H62          -11.4415    -3.9713    -1.6205 H       
  63 H63          -11.1053    -5.0592    -0.2515 H       
  64 H64           -8.7463    -5.2510    -0.9740 H       
  65 H65           -9.1832    -3.5477    -0.6992 H       
  66 H66          -13.4027    -9.4240     0.4730 H       
  67 H67          -13.1301   -10.7211    -0.7367 H       
  68 H68          -11.4432    -8.5168    -0.4915 H       
  69 H69          -11.7109    -9.3605    -2.0532 H       
  70 H70          -13.1522    -4.4647    -2.9356 H       
  71 H71          -15.5449    -5.0425    -2.9249 H       
  72 H72          -16.2789    -7.2614    -2.1738 H       
@<TRIPOS>BOND
   1    1    2 1
   2    1    6 1
   3    1   33 1
   4    1   34 1
   5    2    3 1
   6    2    7 1
   7    2   35 1
   8    3    4 1
   9    3   36 1
  10    3   37 1
  11    4    5 1
  12    4   38 1
  13    4   39 1
  14    5    6 1
  15    5   40 1
  16    5   41 1
  17    7    8 2
  18    7    9 am
  19    9   10 1
  20    9   42 1
  21   10   11 1
  22   10   15 1
  23   10   43 1
  24   11   12 1
  25   11   44 1
  26   11   45 1
  27   12   13 1
  28   12   46 1
  29   12   47 1
  30   13   14 1
  31   13   16 1
  32   13   48 1
  33   14   15 1
  34   14   49 1
  35   14   50 1
  36   15   51 1
  37   15   52 1
  38   16   17 1
  39   16   53 1
  40   16   54 1
  41   17   18 1
  42   17   55 1
  43   17   56 1
  44   18   19 1
  45   18   23 1
  46   19   20 1
  47   19   57 1
  48   19   58 1
  49   20   21 1
  50   20   59 1
  51   20   60 1
  52   21   22 1
  53   21   29 1
  54   21   61 1
  55   22   23 1
  56   22   62 1
  57   22   63 1
  58   23   64 1
  59   23   65 1
  60   24   25 1
  61   24   28 1
  62   25   26 1
  63   25   66 1
  64   25   67 1
  65   26   27 1
  66   26   68 1
  67   26   69 1
  68   27   28 ar
  69   27   29 ar
  70   28   32 ar
  71   29   30 ar
  72   30   31 ar
  73   30   70 1
  74   31   32 ar
  75   31   71 1
  76   32   72 1

#	End of record

