#	Name: ASD05313045
#	Creating user name:	WinNT
#	Creation time:	15. 06. 2019 20:58

#	Modifying user name:	WinNT
#	Modification time:	15. 06. 2019 20:58

#	Program:	/corina/corina34_cracker 3.40 0067  02.08.2006

@<TRIPOS>MOLECULE
ASD05313045
  38   41    0    0    0
SMALL
NO_CHARGES


@<TRIPOS>ATOM
   1 C1            -0.0732     0.8185     1.0192 C.2     
   2 C2             0.1130    -0.6181     0.5930 C.3     
   3 N3             0.9377     1.7361     1.0453 N.pl3   
   4 N4             1.4569    -0.7169    -0.0077 N.am    
   5 C5             2.5717    -0.0377     0.6695 C.3     
   6 C6             2.3235     1.4755     0.6607 C.3     
   7 N7            -0.8984     2.6449     1.6996 N.2     
   8 N8            -1.1541     1.4131     1.4200 N.2     
   9 C9             0.3783     2.8956     1.4876 C.2     
  10 S10            1.6308     6.5903     2.2339 S.3     
  11 C11            2.8494     5.5302     1.6754 C.2     
  12 N12            2.3639     4.3579     1.4581 N.2     
  13 C13            1.0697     4.1859     1.6933 C.2     
  14 C14            0.4400     5.2956     2.1369 C.2     
  15 C15            1.6574    -1.4108    -1.1455 C.2     
  16 O16            2.7494    -1.3999    -1.6796 O.2     
  17 C17            0.5500    -2.1849    -1.7437 C.ar    
  18 C18            0.3182    -2.1292    -3.1206 C.ar    
  19 C19           -0.7189    -2.8556    -3.6723 C.ar    
  20 C20           -1.5266    -3.6358    -2.8649 C.ar    
  21 C21           -1.3022    -3.6946    -1.5007 C.ar    
  22 C22           -0.2660    -2.9797    -0.9369 C.ar    
  23 C23           -0.9713    -2.7975    -5.1569 C.3     
  24 F24           -2.0651    -3.6092    -5.4760 F       
  25 F25           -1.2447    -1.4778    -5.5321 F       
  26 F26            0.1616    -3.2515    -5.8406 F       
  27 Cl27           1.3306    -1.1494    -4.1347 Cl      
  28 H28            0.0436    -1.2754     1.4597 H       
  29 H29           -0.6442    -0.8892    -0.1426 H       
  30 H30            2.6404    -0.3890     1.6991 H       
  31 H31            3.5028    -0.2568     0.1468 H       
  32 H32            2.5039     1.8683    -0.3399 H       
  33 H33            2.9954     1.9592     1.3696 H       
  34 H34            3.8828     5.8055     1.5253 H       
  35 H35           -0.6074     5.3749     2.3881 H       
  36 H36           -2.3365    -4.2016    -3.3012 H       
  37 H37           -1.9374    -4.3054    -0.8763 H       
  38 H38           -0.0893    -3.0310     0.1274 H       
@<TRIPOS>BOND
   1    1    2 1
   2    1    3 1
   3    1    8 2
   4    2    4 1
   5    2   28 1
   6    2   29 1
   7    3    6 1
   8    3    9 1
   9    4    5 1
  10    4   15 am
  11    5    6 1
  12    5   30 1
  13    5   31 1
  14    6   32 1
  15    6   33 1
  16    7    8 1
  17    7    9 2
  18    9   13 1
  19   10   11 1
  20   10   14 1
  21   11   12 2
  22   11   34 1
  23   12   13 1
  24   13   14 2
  25   14   35 1
  26   15   16 2
  27   15   17 1
  28   17   18 ar
  29   17   22 ar
  30   18   19 ar
  31   18   27 1
  32   19   20 ar
  33   19   23 1
  34   20   21 ar
  35   20   36 1
  36   21   22 ar
  37   21   37 1
  38   22   38 1
  39   23   24 1
  40   23   25 1
  41   23   26 1

#	End of record

