#	Name: ASD02570004
#	Creating user name:	WinNT
#	Creation time:	15. 06. 2019 20:25

#	Modifying user name:	WinNT
#	Modification time:	15. 06. 2019 20:25

#	Program:	/corina/corina34_cracker 3.40 0067  02.08.2006

@<TRIPOS>MOLECULE
ASD02570004
  51   53    0    0    0
SMALL
NO_CHARGES


@<TRIPOS>ATOM
   1 C1            -0.1522     1.5486    -0.2304 C.3     
   2 C2             0.1355     0.1127     0.2240 C.3     
   3 C3             0.8324    -0.6233    -0.9183 C.3     
   4 C4             2.0094     0.1717    -1.4217 C.ar    
   5 C5             2.1644     1.5152    -1.1543 C.ar    
   6 C6             1.1756     2.2969    -0.3290 C.3     
   7 C7             2.9608    -0.4983    -2.1839 C.ar    
   8 C8             4.0596     0.1645    -2.6802 C.ar    
   9 C9             4.2214     1.5273    -2.4157 C.ar    
  10 C10            3.2659     2.1947    -1.6506 C.ar    
  11 C11            0.9388     3.6599    -0.9826 C.3     
  12 C12            1.7438     2.5042     1.0764 C.3     
  13 C13            1.3201    -1.9845    -0.4180 C.3     
  14 C14           -0.1607    -0.8338    -2.0629 C.3     
  15 C15            5.3918     2.2528    -2.9415 C.2     
  16 C16            6.4123     2.8255    -1.9920 C.3     
  17 C17            5.5486     2.4033    -4.2662 C.2     
  18 C18            6.7955     2.9805    -4.7998 C.ar    
  19 C19            8.0174     2.7067    -4.1797 C.ar    
  20 C20            9.1802     3.2499    -4.6849 C.ar    
  21 C21            9.1386     4.0645    -5.8027 C.ar    
  22 C22            7.9321     4.3404    -6.4218 C.ar    
  23 C23            6.7620     3.7993    -5.9315 C.ar    
  24 H24           -0.6390     1.5346    -1.2055 H       
  25 H25           -0.7983     2.0412     0.4961 H       
  26 H26            0.7835     0.1279     1.1004 H       
  27 H27           -0.8005    -0.3898     0.4676 H       
  28 H28            2.8356    -1.5514    -2.3883 H       
  29 H29            4.7928    -0.3651    -3.2703 H       
  30 H30            3.3848     3.2479    -1.4432 H       
  31 H31            0.5431     3.5168    -1.9881 H       
  32 H32            0.2237     4.2286    -0.3882 H       
  33 H33            1.8810     4.2052    -1.0371 H       
  34 H34            2.6818     3.0555     1.0114 H       
  35 H35            1.0310     3.0696     1.6767 H       
  36 H36            1.9232     1.5353     1.5423 H       
  37 H37            0.4689    -2.5704    -0.0714 H       
  38 H38            1.8183    -2.5131    -1.2307 H       
  39 H39            2.0206    -1.8397     0.4044 H       
  40 H40           -0.5186     0.1334    -2.4159 H       
  41 H41            0.3331    -1.3590    -2.8804 H       
  42 H42           -1.0043    -1.4257    -1.7077 H       
  43 H43            7.1953     2.0888    -1.8125 H       
  44 H44            6.8509     3.7230    -2.4281 H       
  45 H45            5.9288     3.0790    -1.0486 H       
  46 H46            4.7612     2.1016    -4.9409 H       
  47 H47            8.0513     2.0716    -3.3068 H       
  48 H48           10.1253     3.0392    -4.2068 H       
  49 H49           10.0522     4.4874    -6.1937 H       
  50 H50            7.9072     4.9777    -7.2934 H       
  51 H51            5.8211     4.0155    -6.4156 H       
@<TRIPOS>BOND
   1    1    2 1
   2    1    6 1
   3    1   24 1
   4    1   25 1
   5    2    3 1
   6    2   26 1
   7    2   27 1
   8    3    4 1
   9    3   13 1
  10    3   14 1
  11    4    5 ar
  12    4    7 ar
  13    5    6 1
  14    5   10 ar
  15    6   11 1
  16    6   12 1
  17    7    8 ar
  18    7   28 1
  19    8    9 ar
  20    8   29 1
  21    9   10 ar
  22    9   15 1
  23   10   30 1
  24   11   31 1
  25   11   32 1
  26   11   33 1
  27   12   34 1
  28   12   35 1
  29   12   36 1
  30   13   37 1
  31   13   38 1
  32   13   39 1
  33   14   40 1
  34   14   41 1
  35   14   42 1
  36   15   16 1
  37   15   17 2
  38   16   43 1
  39   16   44 1
  40   16   45 1
  41   17   18 1
  42   17   46 1
  43   18   19 ar
  44   18   23 ar
  45   19   20 ar
  46   19   47 1
  47   20   21 ar
  48   20   48 1
  49   21   22 ar
  50   21   49 1
  51   22   23 ar
  52   22   50 1
  53   23   51 1

#	End of record

