#	Name: ASD01350016
#	Creating user name:	WinNT
#	Creation time:	15. 06. 2019 19:16

#	Modifying user name:	WinNT
#	Modification time:	15. 06. 2019 19:16

#	Program:	/corina/corina34_cracker 3.40 0067  02.08.2006

@<TRIPOS>MOLECULE
ASD01350016
  50   53    0    0    0
SMALL
NO_CHARGES


@<TRIPOS>ATOM
   1 C1            -0.0187     1.5258     0.0104 C.3     
   2 C2             0.0021    -0.0041     0.0020 C.3     
   3 C3            -1.4266    -0.5342     0.1385 C.3     
   4 N4            -1.4067    -2.0031     0.1305 N.3     
   5 C5            -2.7644    -2.5487     0.2600 C.3     
   6 C6            -3.4211    -2.6154    -1.1203 C.3     
   7 C7            -2.6941    -3.9545     0.8598 C.3     
   8 C8            -2.1607    -3.8741     2.2670 C.ar    
   9 C9            -3.0321    -3.7157     3.3284 C.ar    
  10 C10           -2.5428    -3.6419     4.6192 C.ar    
  11 C11           -1.1823    -3.7271     4.8486 C.ar    
  12 C12           -0.3111    -3.8865     3.7873 C.ar    
  13 C13           -0.8006    -3.9646     2.4969 C.ar    
  14 C14            1.3909     2.0646    -0.0001 C.ar    
  15 C15            1.5407     2.8243    -1.1569 C.ar    
  16 C16            0.2709     2.8113    -1.9245 C.ar    
  17 C17           -0.6723     2.0434    -1.2473 C.ar    
  18 C18           -0.0787     3.4146    -3.1342 C.ar    
  19 C19           -1.3482     3.2464    -3.6463 C.ar    
  20 C20           -2.2786     2.4814    -2.9660 C.ar    
  21 C21           -1.9395     1.8812    -1.7664 C.ar    
  22 C22            2.4419     1.9255     0.8817 C.ar    
  23 C23            3.6523     2.5421     0.6194 C.ar    
  24 C24            3.8110     3.2988    -0.5278 C.ar    
  25 C25            2.7649     3.4440    -1.4149 C.ar    
  26 H26           -0.5526     1.8886     0.8887 H       
  27 H27            0.4324    -0.3564    -0.9354 H       
  28 H28            0.6044    -0.3639     0.8362 H       
  29 H29           -1.8569    -0.1819     1.0760 H       
  30 H30           -2.0289    -0.1745    -0.6956 H       
  31 H31           -0.9537    -2.3540    -0.7000 H       
  32 H32           -3.3542    -1.9045     0.9122 H       
  33 H33           -3.4713    -1.6139    -1.5476 H       
  34 H34           -2.8314    -3.2596    -1.7724 H       
  35 H35           -4.4286    -3.0203    -1.0241 H       
  36 H36           -3.6915    -4.3939     0.8738 H       
  37 H37           -2.0323    -4.5747     0.2553 H       
  38 H38           -4.0950    -3.6491     3.1492 H       
  39 H39           -3.2235    -3.5174     5.4484 H       
  40 H40           -0.8000    -3.6687     5.8570 H       
  41 H41            0.7519    -3.9527     3.9665 H       
  42 H42           -0.1199    -4.0891     1.6677 H       
  43 H43            0.6445     4.0129    -3.6684 H       
  44 H44           -1.6171     3.7140    -4.5820 H       
  45 H45           -3.2714     2.3533    -3.3713 H       
  46 H46           -2.6673     1.2844    -1.2368 H       
  47 H47            2.3199     1.3352     1.7778 H       
  48 H48            4.4745     2.4322     1.3110 H       
  49 H49            4.7574     3.7786    -0.7290 H       
  50 H50            2.8932     4.0354    -2.3095 H       
@<TRIPOS>BOND
   1    1    2 1
   2    1   14 1
   3    1   17 1
   4    1   26 1
   5    2    3 1
   6    2   27 1
   7    2   28 1
   8    3    4 1
   9    3   29 1
  10    3   30 1
  11    4    5 1
  12    4   31 1
  13    5    6 1
  14    5    7 1
  15    5   32 1
  16    6   33 1
  17    6   34 1
  18    6   35 1
  19    7    8 1
  20    7   36 1
  21    7   37 1
  22    8    9 ar
  23    8   13 ar
  24    9   10 ar
  25    9   38 1
  26   10   11 ar
  27   10   39 1
  28   11   12 ar
  29   11   40 1
  30   12   13 ar
  31   12   41 1
  32   13   42 1
  33   14   15 ar
  34   14   22 ar
  35   15   16 1
  36   15   25 ar
  37   16   17 ar
  38   16   18 ar
  39   17   21 ar
  40   18   19 ar
  41   18   43 1
  42   19   20 ar
  43   19   44 1
  44   20   21 ar
  45   20   45 1
  46   21   46 1
  47   22   23 ar
  48   22   47 1
  49   23   24 ar
  50   23   48 1
  51   24   25 ar
  52   24   49 1
  53   25   50 1

#	End of record

