#	Name: ASD05740009
#	Creating user name:	WinNT
#	Creation time:	15. 06. 2019 21:02

#	Modifying user name:	WinNT
#	Modification time:	15. 06. 2019 21:02

#	Program:	/corina/corina34_cracker 3.40 0067  02.08.2006

@<TRIPOS>MOLECULE
ASD05740009
  51   54    0    0    0
SMALL
NO_CHARGES


@<TRIPOS>ATOM
   1 C1            -0.1818     1.1215     0.7899 C.ar    
   2 C2             0.9890     3.1201     0.6265 C.ar    
   3 N3            -0.1821     3.7407     0.5757 N.ar    
   4 C4            -0.2541     5.0559     0.4685 C.ar    
   5 C5             0.9384     5.7850     0.4094 C.ar    
   6 C6             2.1638     5.0904     0.4663 C.ar    
   7 N7             2.1408     3.7692     0.5790 N.ar    
   8 C8             0.9486     7.2421     0.2902 C.2     
   9 C9             2.1535     7.8694     0.2390 C.2     
  10 C10            3.3412     7.1117     0.3011 C.2     
  11 O11            3.3224     5.7729     0.4106 O.3     
  12 C12            2.2197     9.3699     0.1157 C.3     
  13 C13            2.3651     9.9806     1.4858 C.ar    
  14 C14            1.2451    10.4166     2.1705 C.ar    
  15 O15            4.4136     7.6868     0.2538 O.2     
  16 C16            3.7493    10.6634     3.3245 C.ar    
  17 C17            2.6230    11.1049     4.0048 C.ar    
  18 C18            1.3740    10.9773     3.4274 C.ar    
  19 O19            1.0064     1.7709     0.7369 O.3     
  20 N20            5.0145    10.7912     3.9062 N.am    
  21 S21            5.1970    10.6026     5.5413 S.o2    
  22 O22            6.6008    10.6785     5.7483 O.2     
  23 O23            4.3200    11.5679     6.1055 O.2     
  24 C24           -0.3376     8.0248     0.2255 C.3     
  25 N25           -0.1923    -0.1971     0.8978 N.ar    
  26 C26           -1.3345    -0.8624     0.9525 C.ar    
  27 C27           -2.5284    -0.1608     0.8955 C.ar    
  28 C28           -2.4799     1.2197     0.7826 C.ar    
  29 N29           -1.3030     1.8222     0.7380 N.ar    
  30 C30            3.6171    10.0994     2.0596 C.ar    
  31 F31            4.7105     9.6682     1.3935 F       
  32 C32            4.5944     8.9241     5.8733 C.3     
  33 C33            4.7125     8.6265     7.3694 C.3     
  34 H34           -1.2105     5.5558     0.4272 H       
  35 H35            3.0769     9.6466    -0.4982 H       
  36 H36            1.3054     9.7369    -0.3505 H       
  37 H37            0.2675    10.3190     1.7219 H       
  38 H38            2.7226    11.5475     4.9849 H       
  39 H39            0.4971    11.3165     3.9589 H       
  40 H40            5.7853    10.9904     3.3520 H       
  41 H41           -1.1833     7.3393     0.2812 H       
  42 H42           -0.3804     8.7231     1.0613 H       
  43 H43           -0.3795     8.5780    -0.7128 H       
  44 H44           -1.3365    -1.9388     1.0402 H       
  45 H45           -3.4754    -0.6783     0.9378 H       
  46 H46           -3.3916     1.7968     0.7353 H       
  47 H47            3.5508     8.8459     5.5686 H       
  48 H48            5.1917     8.2059     5.3117 H       
  49 H49            5.7561     8.7047     7.6741 H       
  50 H50            4.1152     9.3447     7.9311 H       
  51 H51            4.3504     7.6179     7.5689 H       
@<TRIPOS>BOND
   1    1   25 ar
   2    1   19 1
   3    1   29 ar
   4    2    3 ar
   5    2   19 1
   6    2    7 ar
   7    3    4 ar
   8    4    5 ar
   9    4   34 1
  10    5    6 ar
  11    5    8 1
  12    6    7 ar
  13    6   11 1
  14    8    9 2
  15    8   24 1
  16    9   10 1
  17    9   12 1
  18   10   11 1
  19   10   15 2
  20   12   13 1
  21   12   35 1
  22   12   36 1
  23   13   14 ar
  24   13   30 ar
  25   14   18 ar
  26   14   37 1
  27   16   17 ar
  28   16   20 1
  29   16   30 ar
  30   17   18 ar
  31   17   38 1
  32   18   39 1
  33   20   21 am
  34   20   40 1
  35   21   22 2
  36   21   23 2
  37   21   32 1
  38   24   41 1
  39   24   42 1
  40   24   43 1
  41   25   26 ar
  42   26   27 ar
  43   26   44 1
  44   27   28 ar
  45   27   45 1
  46   28   29 ar
  47   28   46 1
  48   30   31 1
  49   32   33 1
  50   32   47 1
  51   32   48 1
  52   33   49 1
  53   33   50 1
  54   33   51 1

#	End of record

