#	Name: ASD01883997
#	Creating user name:	WinNT
#	Creation time:	15. 06. 2019 19:47

#	Modifying user name:	WinNT
#	Modification time:	15. 06. 2019 19:47

#	Program:	/corina/corina34_cracker 3.40 0067  02.08.2006

@<TRIPOS>MOLECULE
ASD01883997
  62   67    0    0    0
SMALL
NO_CHARGES


@<TRIPOS>ATOM
   1 C1            -0.0178     1.4608     0.0101 C.3     
   2 N2             0.0021    -0.0041     0.0020 N.am    
   3 C3             0.0241    -0.7433     1.2666 C.3     
   4 S4            -0.0004    -0.8243    -1.4366 S.o2    
   5 O5            -0.5247    -2.1160    -1.1611 O.2     
   6 O6            -0.5660     0.0551    -2.3989 O.2     
   7 C7             1.6816    -1.0597    -1.9056 C.ar    
   8 C8             2.3224    -0.1081    -2.6782 C.ar    
   9 C9             3.6430    -0.2863    -3.0502 C.ar    
  10 C10            4.3283    -1.4159    -2.6523 C.ar    
  11 C11            3.6875    -2.3784    -1.8736 C.ar    
  12 C12            2.3589    -2.1907    -1.4967 C.ar    
  13 C13            4.4185    -3.5949    -1.4431 C.ar    
  14 C14            3.7689    -4.5582    -0.6677 C.ar    
  15 C15            4.4315    -5.6832    -0.2649 C.ar    
  16 C16            5.7646    -5.8726    -0.6297 C.ar    
  17 C17            6.5062    -7.0749    -0.2116 C.2     
  18 O18            5.9678    -7.9316     0.4642 O.2     
  19 N19            7.7932    -7.2082    -0.5925 N.am    
  20 C20            8.5459    -8.3976    -0.1864 C.3     
  21 C21            8.3826    -9.4905    -1.2446 C.3     
  22 C22            9.6381    -9.9419    -1.9935 C.3     
  23 C23            8.9997   -10.8587    -0.9481 C.3     
  24 C24            8.4152    -6.2366    -1.3634 C.2     
  25 C25            9.6848    -6.1650    -1.8552 C.2     
  26 C26            9.8009    -4.9647    -2.5767 C.2     
  27 N27            8.6448    -4.3371    -2.5215 N.2     
  28 N28            7.7562    -5.1146    -1.7652 N.pl3   
  29 C29            6.4268    -4.9092    -1.4101 C.ar    
  30 C30            5.7475    -3.7739    -1.8187 C.ar    
  31 C31           11.0174    -4.4866    -3.2794 C.ar    
  32 C32           12.1805    -5.2538    -3.2644 C.ar    
  33 C33           13.3089    -4.8045    -3.9200 C.ar    
  34 C34           13.2867    -3.5950    -4.5907 C.ar    
  35 C35           12.1350    -2.8292    -4.6084 C.ar    
  36 C36           10.9990    -3.2717    -3.9614 C.ar    
  37 H37            1.0048     1.8381     0.0023 H       
  38 H38           -0.5450     1.8219    -0.8730 H       
  39 H39           -0.5280     1.8123     0.9069 H       
  40 H40            0.0224    -0.0395     2.0990 H       
  41 H41           -0.8567    -1.3823     1.3294 H       
  42 H42            0.9230    -1.3581     1.3125 H       
  43 H43            1.7898     0.7772    -2.9925 H       
  44 H44            4.1384     0.4600    -3.6536 H       
  45 H45            5.3589    -1.5543    -2.9439 H       
  46 H46            1.8589    -2.9310    -0.8898 H       
  47 H47            2.7369    -4.4127    -0.3847 H       
  48 H48            3.9243    -6.4242     0.3351 H       
  49 H49            9.6011    -8.1432    -0.0866 H       
  50 H50            8.1671    -8.7583     0.7699 H       
  51 H51            7.4447    -9.4710    -1.7997 H       
  52 H52            9.5264   -10.2194    -3.0417 H       
  53 H53           10.5804    -9.4603    -1.7324 H       
  54 H54            9.5221   -10.9803     0.0008 H       
  55 H55            8.4681   -11.7394    -1.3085 H       
  56 H56           10.4633    -6.9003    -1.7149 H       
  57 H57            6.2464    -3.0299    -2.4220 H       
  58 H58           12.1991    -6.1980    -2.7405 H       
  59 H59           14.2110    -5.3983    -3.9091 H       
  60 H60           14.1720    -3.2471    -5.1021 H       
  61 H61           12.1232    -1.8854    -5.1333 H       
  62 H62           10.0989    -2.6751    -3.9796 H       
@<TRIPOS>BOND
   1    1    2 1
   2    1   37 1
   3    1   38 1
   4    1   39 1
   5    2    3 1
   6    2    4 am
   7    3   40 1
   8    3   41 1
   9    3   42 1
  10    4    5 2
  11    4    6 2
  12    4    7 1
  13    7   12 ar
  14    7    8 ar
  15    8    9 ar
  16    8   43 1
  17    9   10 ar
  18    9   44 1
  19   10   11 ar
  20   10   45 1
  21   11   12 ar
  22   11   13 1
  23   12   46 1
  24   13   30 ar
  25   13   14 ar
  26   14   15 ar
  27   14   47 1
  28   15   16 ar
  29   15   48 1
  30   16   29 ar
  31   16   17 1
  32   17   18 2
  33   17   19 am
  34   19   20 1
  35   19   24 1
  36   20   21 1
  37   20   49 1
  38   20   50 1
  39   21   23 1
  40   21   22 1
  41   21   51 1
  42   22   23 1
  43   22   52 1
  44   22   53 1
  45   23   54 1
  46   23   55 1
  47   24   28 1
  48   24   25 2
  49   25   26 1
  50   25   56 1
  51   26   27 2
  52   26   31 1
  53   27   28 1
  54   28   29 1
  55   29   30 ar
  56   30   57 1
  57   31   36 ar
  58   31   32 ar
  59   32   33 ar
  60   32   58 1
  61   33   34 ar
  62   33   59 1
  63   34   35 ar
  64   34   60 1
  65   35   36 ar
  66   35   61 1
  67   36   62 1

#	End of record

