#	Name: ASD00840138
#	Creating user name:	WinNT
#	Creation time:	15. 06. 2019 18:37

#	Modifying user name:	WinNT
#	Modification time:	15. 06. 2019 18:37

#	Program:	/corina/corina34_cracker 3.40 0067  02.08.2006

@<TRIPOS>MOLECULE
ASD00840138
  28   29    0    0    0
SMALL
NO_CHARGES


@<TRIPOS>ATOM
   1 C1            -0.0162     1.3462     0.0094 C.2     
   2 N2             0.0021    -0.0041     0.0020 N.pl3   
   3 C3             1.3150    -0.3911    -0.0126 C.2     
   4 C4             2.0532     0.7352    -0.0136 C.2     
   5 N5             1.2140     1.7814     0.0000 N.2     
   6 C6            -1.1652    -0.8893     0.0088 C.3     
   7 C7            -1.5855    -1.1903    -1.4312 C.3     
   8 C8            -2.7244    -2.2118    -1.4272 C.3     
   9 C9            -3.1447    -2.5128    -2.8672 C.3     
  10 C10           -3.6187    -1.2231    -3.5402 C.3     
  11 C11           -2.4798    -0.2015    -3.5443 C.3     
  12 C12           -2.0595     0.0994    -2.1042 C.3     
  13 H13           -0.9023     1.9637     0.0171 H       
  14 H14            1.6872    -1.4049    -0.0211 H       
  15 H15            3.1319     0.7869    -0.0231 H       
  16 H16           -0.9120    -1.8206     0.5156 H       
  17 H17           -1.9875    -0.4024     0.5331 H       
  18 H18           -0.7357    -1.5957    -1.9805 H       
  19 H19           -2.3867    -3.1306    -0.9477 H       
  20 H20           -3.5742    -1.8065    -0.8779 H       
  21 H21           -2.2950    -2.9182    -3.4165 H       
  22 H22           -3.9561    -3.2406    -2.8643 H       
  23 H23           -3.9181    -1.4375    -4.5661 H       
  24 H24           -4.4684    -0.8177    -2.9909 H       
  25 H25           -1.6300    -0.6069    -4.0936 H       
  26 H26           -2.8175     0.7172    -4.0237 H       
  27 H27           -2.9092     0.5048    -1.5549 H       
  28 H28           -1.2481     0.8272    -2.1071 H       
@<TRIPOS>BOND
   1    1    2 1
   2    1    5 2
   3    1   13 1
   4    2    3 1
   5    2    6 1
   6    3    4 2
   7    3   14 1
   8    4    5 1
   9    4   15 1
  10    6    7 1
  11    6   16 1
  12    6   17 1
  13    7    8 1
  14    7   12 1
  15    7   18 1
  16    8    9 1
  17    8   19 1
  18    8   20 1
  19    9   10 1
  20    9   21 1
  21    9   22 1
  22   10   11 1
  23   10   23 1
  24   10   24 1
  25   11   12 1
  26   11   25 1
  27   11   26 1
  28   12   27 1
  29   12   28 1

#	End of record

