#	Name: ASD03091260
#	Creating user name:	WinNT
#	Creation time:	15. 06. 2019 20:30

#	Modifying user name:	WinNT
#	Modification time:	15. 06. 2019 20:30

#	Program:	/corina/corina34_cracker 3.40 0067  02.08.2006

@<TRIPOS>MOLECULE
ASD03091260
  29   32    0    0    0
SMALL
NO_CHARGES


@<TRIPOS>ATOM
   1 O1            -0.0162     1.3445     0.0094 O.3     
   2 C2             0.0021    -0.0041     0.0020 C.2     
   3 N3             1.2612    -0.3804    -0.0120 N.2     
   4 N4             2.0180     0.6601    -0.0137 N.2     
   5 C5             1.2729     1.7417    -0.0007 C.2     
   6 C6             0.8552     4.2024     0.0165 C.ar    
   7 C7             1.7578     3.1373     0.0021 C.ar    
   8 C8             3.1301     3.4142    -0.0090 C.ar    
   9 C9             3.5320     4.7384    -0.0053 C.ar    
  10 C10            2.5746     5.7365     0.0092 C.ar    
  11 N11            1.2875     5.4461     0.0194 N.ar    
  12 O12           -4.3024    -3.5811     0.0252 O.3     
  13 C13           -3.5659    -4.7517     0.4254 C.3     
  14 O14           -2.2192    -4.4713     0.0003 O.3     
  15 C15           -2.1114    -3.1102     0.0058 C.ar    
  16 C16           -3.3943    -2.5622     0.0213 C.ar    
  17 C17           -3.5618    -1.1852     0.0303 C.ar    
  18 C18           -2.4627    -0.3521     0.0246 C.ar    
  19 C19           -1.1761    -0.8942     0.0089 C.ar    
  20 C20           -1.0063    -2.2807    -0.0012 C.ar    
  21 F21           -3.6191    -4.9149     1.8139 F       
  22 F22           -4.0595    -5.8885    -0.2236 F       
  23 H23           -0.2065     4.0045     0.0207 H       
  24 H24            3.8565     2.6150    -0.0199 H       
  25 H25            4.5823     4.9899    -0.0133 H       
  26 H26            2.8856     6.7708     0.0121 H       
  27 H27           -4.5562    -0.7640     0.0421 H       
  28 H28           -2.5972     0.7194     0.0312 H       
  29 H29           -0.0127    -2.7038    -0.0133 H       
@<TRIPOS>BOND
   1    1    2 1
   2    1    5 1
   3    2    3 2
   4    2   19 1
   5    3    4 1
   6    4    5 2
   7    5    7 1
   8    6    7 ar
   9    6   11 ar
  10    6   23 1
  11    7    8 ar
  12    8    9 ar
  13    8   24 1
  14    9   10 ar
  15    9   25 1
  16   10   11 ar
  17   10   26 1
  18   12   13 1
  19   12   16 1
  20   13   14 1
  21   13   21 1
  22   13   22 1
  23   14   15 1
  24   15   16 ar
  25   15   20 ar
  26   16   17 ar
  27   17   18 ar
  28   17   27 1
  29   18   19 ar
  30   18   28 1
  31   19   20 ar
  32   20   29 1

#	End of record

