#	Name: ASD02030731
#	Creating user name:	WinNT
#	Creation time:	15. 06. 2019 20:16

#	Modifying user name:	WinNT
#	Modification time:	15. 06. 2019 20:16

#	Program:	/corina/corina34_cracker 3.40 0067  02.08.2006

@<TRIPOS>MOLECULE
ASD02030731
  29   31    0    0    0
SMALL
NO_CHARGES


@<TRIPOS>ATOM
   1 N1            -0.0169     1.3957     0.0097 N.2     
   2 N2             0.0021    -0.0041     0.0020 N.am    
   3 C3             1.1646    -0.6797    -0.0123 C.2     
   4 N4             2.3448    -0.0325    -0.0200 N.am    
   5 C5             2.3757     1.3164    -0.0131 C.2     
   6 C6             1.1074     2.0610     0.0026 C.2     
   7 O7             1.1494    -1.8958    -0.0178 O.2     
   8 O8             3.4386     1.9089    -0.0192 O.2     
   9 O9             1.1051     3.4197     0.0094 O.3     
  10 C10           -1.2627    -0.7434     0.0101 C.3     
  11 N11           -3.2790     0.9064     3.9787 N.pl3   
  12 C12           -3.2683     1.8674     3.0047 C.2     
  13 C13           -2.6950     1.3840     1.8913 C.2     
  14 C14           -2.3069     0.0004     2.1755 C.ar    
  15 C15           -1.6828    -1.0045     1.4336 C.ar    
  16 C16           -1.4547    -2.2255     2.0027 C.ar    
  17 C17           -1.8386    -2.4755     3.3133 C.ar    
  18 C18           -2.4561    -1.4987     4.0630 C.ar    
  19 C19           -2.6982    -0.2481     3.5036 C.ar    
  20 H20            3.1737    -0.5362    -0.0303 H       
  21 H21            0.2211     3.8114     0.0197 H       
  22 H22           -2.0303    -0.1556    -0.4933 H       
  23 H23           -1.1322    -1.6923    -0.5101 H       
  24 H24           -3.6386     1.0224     4.8721 H       
  25 H25           -3.6629     2.8666     3.1152 H       
  26 H26           -2.5478     1.9146     0.9622 H       
  27 H27           -0.9723    -3.0025     1.4284 H       
  28 H28           -1.6515    -3.4457     3.7493 H       
  29 H29           -2.7513    -1.7030     5.0816 H       
@<TRIPOS>BOND
   1    1    2 1
   2    1    6 2
   3    2    3 am
   4    2   10 1
   5    3    4 am
   6    3    7 2
   7    4    5 am
   8    4   20 1
   9    5    6 1
  10    5    8 2
  11    6    9 1
  12    9   21 1
  13   10   15 1
  14   10   22 1
  15   10   23 1
  16   11   12 1
  17   11   19 1
  18   11   24 1
  19   12   13 2
  20   12   25 1
  21   13   14 1
  22   13   26 1
  23   14   15 ar
  24   14   19 ar
  25   15   16 ar
  26   16   17 ar
  27   16   27 1
  28   17   18 ar
  29   17   28 1
  30   18   19 ar
  31   18   29 1

#	End of record

