#	Name: ASD01948056
#	Creating user name:	WinNT
#	Creation time:	15. 06. 2019 20:13

#	Modifying user name:	WinNT
#	Modification time:	15. 06. 2019 20:13

#	Program:	/corina/corina34_cracker 3.40 0067  02.08.2006

@<TRIPOS>MOLECULE
ASD01948056
  49   52    0    0    0
SMALL
NO_CHARGES


@<TRIPOS>ATOM
   1 C1            -0.9570     1.7292     0.5516 C.3     
   2 C2            -0.9581     0.2027     0.6541 C.3     
   3 C3             0.3672     0.9667     0.6290 C.3     
   4 S4            -1.4095     2.4619    -1.0449 S.o2    
   5 O5            -0.4087     2.1950    -2.0177 O.2     
   6 O6            -2.7837     2.2345    -1.3263 O.2     
   7 N7            -1.3091     4.0955    -0.7933 N.am    
   8 C8             1.0924     3.9540    -0.7060 C.2     
   9 C9            -0.0501     4.7063    -0.6224 C.2     
  10 C10            0.0316     6.0855    -0.3670 C.2     
  11 C11            1.2812     6.6690    -0.1982 C.2     
  12 C12            2.4185     5.8697    -0.2930 C.2     
  13 N13            2.3103     4.5534    -0.5494 N.am    
  14 O14            1.2176     2.6186    -0.9273 O.3     
  15 C15            3.3505     3.5191    -0.7199 C.3     
  16 C16            2.5614     2.3605    -1.3713 C.3     
  17 O17            3.5241     6.3688    -0.1425 O.2     
  18 C18            1.4047     8.1444     0.0829 C.3     
  19 N19           -1.1195     6.8542    -0.2851 N.pl3   
  20 C20           -1.9819     6.9417    -1.3833 C.ar    
  21 C21           -3.1431     7.7033    -1.2990 C.ar    
  22 C22           -3.9926     7.7870    -2.3863 C.ar    
  23 C23           -3.6883     7.1143    -3.5567 C.ar    
  24 C24           -2.5348     6.3564    -3.6423 C.ar    
  25 C25           -1.6781     6.2734    -2.5613 C.ar    
  26 I26           -4.9783     7.2438    -5.2023 I       
  27 F27           -3.4403     8.3597    -0.1561 F       
  28 C28           -1.3897     2.5206     1.7875 C.3     
  29 C29           -1.1741     3.9919     1.5428 C.2     
  30 O30           -2.0985     4.7624     1.6429 O.2     
  31 H31           -1.2672    -0.2379     1.6020 H       
  32 H32           -1.2309    -0.3614    -0.2378 H       
  33 H33            0.9664     0.9052    -0.2795 H       
  34 H34            0.9301     1.0288     1.5604 H       
  35 H35           -2.1166     4.6322    -0.7634 H       
  36 H36            4.1413     3.8704    -1.3828 H       
  37 H37            3.7578     3.2164     0.2448 H       
  38 H38            2.9131     1.3966    -1.0034 H       
  39 H39            2.6269     2.4095    -2.4582 H       
  40 H40            1.2972     8.3206     1.1532 H       
  41 H41            2.3821     8.4965    -0.2469 H       
  42 H42            0.6241     8.6831    -0.4542 H       
  43 H43           -1.3268     7.3314     0.5336 H       
  44 H44           -4.8946     8.3776    -2.3223 H       
  45 H45           -2.3008     5.8321    -4.5571 H       
  46 H46           -0.7750     5.6853    -2.6314 H       
  47 H47           -2.4455     2.3361     1.9857 H       
  48 H48           -0.7981     2.2047     2.6467 H       
  49 H49           -0.1929     4.3571     1.2779 H       
@<TRIPOS>BOND
   1    1    2 1
   2    1    3 1
   3    1    4 1
   4    1   28 1
   5    2    3 1
   6    2   31 1
   7    2   32 1
   8    3   33 1
   9    3   34 1
  10    4    5 2
  11    4    6 2
  12    4    7 am
  13    7    9 1
  14    7   35 1
  15    8    9 2
  16    8   13 1
  17    8   14 1
  18    9   10 1
  19   10   11 2
  20   10   19 1
  21   11   12 1
  22   11   18 1
  23   12   13 am
  24   12   17 2
  25   13   15 1
  26   14   16 1
  27   15   16 1
  28   15   36 1
  29   15   37 1
  30   16   38 1
  31   16   39 1
  32   18   40 1
  33   18   41 1
  34   18   42 1
  35   19   20 1
  36   19   43 1
  37   20   21 ar
  38   20   25 ar
  39   21   22 ar
  40   21   27 1
  41   22   23 ar
  42   22   44 1
  43   23   24 ar
  44   23   26 1
  45   24   25 ar
  46   24   45 1
  47   25   46 1
  48   28   29 1
  49   28   47 1
  50   28   48 1
  51   29   30 2
  52   29   49 1

#	End of record

