#	Name: ASD01410747
#	Creating user name:	WinNT
#	Creation time:	15. 06. 2019 19:18

#	Modifying user name:	WinNT
#	Modification time:	15. 06. 2019 19:18

#	Program:	/corina/corina34_cracker 3.40 0067  02.08.2006

@<TRIPOS>MOLECULE
ASD01410747
 105  111    0    0    0
SMALL
NO_CHARGES


@<TRIPOS>ATOM
   1 O1            -1.6976     4.5791    -0.2109 O.3     
   2 C2            -1.2872     0.9302     0.4949 C.3     
   3 C3            -1.9320     2.1750    -0.1546 C.3     
   4 N4            -1.2987     2.2324    -1.4863 N.am    
   5 C5            -1.1863     0.8454    -1.9543 C.3     
   6 C6            -1.1534    -0.0481    -0.6974 C.3     
   7 O7            -0.0031     1.2488     1.0349 O.3     
   8 C8            -2.3772     0.4913    -2.8072 C.2     
   9 O9            -3.2440     1.3149    -3.0104 O.2     
  10 N10           -2.4790    -0.7407    -3.3442 N.am    
  11 C11           -1.5716     3.4319     0.6293 C.3     
  12 C12           -0.7820     4.6299    -1.3052 C.3     
  13 C13           -0.8736     3.3484    -2.0996 C.2     
  14 O14           -0.5676     3.3280    -3.2730 O.2     
  15 C15           -3.6903    -1.1240    -4.0736 C.3     
  16 C16           -4.9640    -1.1161    -3.2682 C.2     
  17 N17           -4.9428    -1.4788    -1.9703 N.am    
  18 O18           -6.0081    -0.7834    -3.7879 O.2     
  19 S19           -6.3575    -1.5785    -1.1153 S.o2    
  20 C20           -7.2726    -2.9281    -1.9101 C.3     
  21 C21           -3.7839    -0.7235    -5.5473 C.3     
  22 C22           -3.5511    -2.1873    -5.1649 C.3     
  23 C23           -8.6961    -3.2010    -1.4200 C.3     
  24 C24           -8.4689    -2.5505    -2.7861 C.3     
  25 O25           -5.9504    -1.9549     0.1931 O.2     
  26 O26           -6.9992    -0.3331    -1.3530 O.2     
  27 C27           -5.1428    -0.3519    -6.0825 C.2     
  28 C28           -5.3462     0.8421    -6.5815 C.2     
  29 C29            0.4770     0.4314     2.0047 C.ar    
  30 C30            1.7058     0.7109     2.6473 C.ar    
  31 C31           -0.2180    -0.6841     2.3921 C.ar    
  32 C32            0.2998    -1.5129     3.3968 C.ar    
  33 N33            1.4521    -1.2454     3.9878 N.ar    
  34 C34            2.1715    -0.1690     3.6554 C.ar    
  35 C35           -0.4598    -2.7130     3.8055 C.2     
  36 C36            3.3955     0.1043     4.2907 C.ar    
  37 C37            4.1158     1.2204     3.9278 C.ar    
  38 C38            3.6433     2.0842     2.9356 C.ar    
  39 C39            2.4638     1.8391     2.3019 C.ar    
  40 Cl40           3.9948    -0.9585     5.5256 Cl      
  41 O41            5.2988     1.4853     4.5413 O.3     
  42 C42            5.9993     2.6578     4.1212 C.3     
  43 N43           -0.0939    -3.5633     4.7218 N.2     
  44 C44           -0.8963    -4.5740     4.9531 C.2     
  45 C45           -2.0113    -4.6153     4.2124 C.2     
  46 S46           -2.0092    -3.2190     3.1368 S.3     
  47 C47           -0.5832    -5.6241     5.9877 C.3     
  48 C48           -1.2740    -5.2645     7.3046 C.3     
  49 C49           -1.0874    -6.9846     5.5022 C.3     
  50 C50            7.2986     2.7888     4.9184 C.3     
  51 C51           -1.1312     5.8152    -2.2074 C.3     
  52 C52           -2.4953     5.5765    -2.8579 C.3     
  53 C53           -1.1820     7.0953    -1.3709 C.3     
  54 O54            6.9949     2.8888     6.3111 O.3     
  55 C55            8.0923     3.3256     7.1155 C.3     
  56 O56            8.1154     1.6386     4.6903 O.3     
  57 C57            9.5017     1.8459     4.9682 C.3     
  58 H58           -1.9371     0.5167     1.2662 H       
  59 H59           -3.0121     2.0555    -0.2402 H       
  60 H60           -0.2670     0.7184    -2.5261 H       
  61 H61           -0.2076    -0.5871    -0.6407 H       
  62 H62           -1.9889    -0.7481    -0.7085 H       
  63 H63           -1.7503    -1.3736    -3.2476 H       
  64 H64           -0.5442     3.3547     0.9853 H       
  65 H65           -2.2429     3.5319     1.4822 H       
  66 H66            0.2324     4.7497    -0.9247 H       
  67 H67           -4.0989    -1.6815    -1.5371 H       
  68 H68           -6.6734    -3.7849    -2.2181 H       
  69 H69           -2.9443    -0.1749    -5.9741 H       
  70 H70           -2.5583    -2.6015    -5.3403 H       
  71 H71           -4.3808    -2.8810    -5.3005 H       
  72 H72           -9.0335    -4.2374    -1.4060 H       
  73 H73           -9.0827    -2.5696    -0.6200 H       
  74 H74           -8.7060    -1.4912    -2.8848 H       
  75 H75           -8.6568    -3.1590    -3.6708 H       
  76 H76           -5.9490    -1.0701    -6.0546 H       
  77 H77           -4.5400     1.5602    -6.6093 H       
  78 H78           -6.3201     1.1084    -6.9650 H       
  79 H79           -1.1619    -0.9237     1.9251 H       
  80 H80            4.2231     2.9545     2.6656 H       
  81 H81            2.1104     2.5145     1.5368 H       
  82 H82            6.2310     2.5816     3.0588 H       
  83 H83            5.3763     3.5352     4.2951 H       
  84 H84           -2.7809    -5.3710     4.2678 H       
  85 H85            0.4946    -5.6706     6.1436 H       
  86 H86           -0.9148    -4.2952     7.6505 H       
  87 H87           -2.3518    -5.2180     7.1487 H       
  88 H88           -1.0476    -6.0240     8.0529 H       
  89 H89           -0.5953    -7.2408     4.5640 H       
  90 H90           -0.8610    -7.7441     6.2505 H       
  91 H91           -2.1652    -6.9381     5.3463 H       
  92 H92            7.8329     3.6832     4.5979 H       
  93 H93           -0.3719     5.9177    -2.9827 H       
  94 H94           -2.4590     4.6646    -3.4538 H       
  95 H95           -3.2546     5.4740    -2.0826 H       
  96 H96           -2.7440     6.4210    -3.5007 H       
  97 H97           -0.1905     7.3076    -0.9710 H       
  98 H98           -1.5066     7.9261    -1.9974 H       
  99 H99           -1.8852     6.9642    -0.5484 H       
 100 H100           7.7222     3.6591     8.0849 H       
 101 H101           8.7900     2.5002     7.2573 H       
 102 H102           8.6019     4.1506     6.6177 H       
 103 H103           9.9064     2.5792     4.2706 H       
 104 H104           9.6170     2.2124     5.9882 H       
 105 H105          10.0392     0.9041     4.8576 H       
@<TRIPOS>BOND
   1    1   11 1
   2    1   12 1
   3    2    3 1
   4    2    7 1
   5    2    6 1
   6    2   58 1
   7    3    4 1
   8    3   11 1
   9    3   59 1
  10    4    5 1
  11    4   13 am
  12    5    6 1
  13    5    8 1
  14    5   60 1
  15    6   61 1
  16    6   62 1
  17    7   29 1
  18    8    9 2
  19    8   10 am
  20   10   15 1
  21   10   63 1
  22   11   64 1
  23   11   65 1
  24   12   13 1
  25   12   51 1
  26   12   66 1
  27   13   14 2
  28   15   16 1
  29   15   21 1
  30   15   22 1
  31   16   17 am
  32   16   18 2
  33   17   19 am
  34   17   67 1
  35   19   20 1
  36   19   25 2
  37   19   26 2
  38   20   23 1
  39   20   24 1
  40   20   68 1
  41   21   22 1
  42   21   27 1
  43   21   69 1
  44   22   70 1
  45   22   71 1
  46   23   24 1
  47   23   72 1
  48   23   73 1
  49   24   74 1
  50   24   75 1
  51   27   28 2
  52   27   76 1
  53   28   77 1
  54   28   78 1
  55   29   30 ar
  56   29   31 ar
  57   30   34 ar
  58   30   39 ar
  59   31   32 ar
  60   31   79 1
  61   32   33 ar
  62   32   35 1
  63   33   34 ar
  64   34   36 ar
  65   35   43 2
  66   35   46 1
  67   36   37 ar
  68   36   40 1
  69   37   38 ar
  70   37   41 1
  71   38   39 ar
  72   38   80 1
  73   39   81 1
  74   41   42 1
  75   42   50 1
  76   42   82 1
  77   42   83 1
  78   43   44 1
  79   44   45 2
  80   44   47 1
  81   45   46 1
  82   45   84 1
  83   47   48 1
  84   47   49 1
  85   47   85 1
  86   48   86 1
  87   48   87 1
  88   48   88 1
  89   49   89 1
  90   49   90 1
  91   49   91 1
  92   50   54 1
  93   50   56 1
  94   50   92 1
  95   51   52 1
  96   51   53 1
  97   51   93 1
  98   52   94 1
  99   52   95 1
 100   52   96 1
 101   53   97 1
 102   53   98 1
 103   53   99 1
 104   54   55 1
 105   55  100 1
 106   55  101 1
 107   55  102 1
 108   56   57 1
 109   57  103 1
 110   57  104 1
 111   57  105 1

#	End of record

