#	Name: ASD06390008
#	Creating user name:	WinNT
#	Creation time:	15. 06. 2019 21:06

#	Modifying user name:	WinNT
#	Modification time:	15. 06. 2019 21:06

#	Program:	/corina/corina34_cracker 3.40 0067  02.08.2006

@<TRIPOS>MOLECULE
ASD06390008
  53   55    0    0    0
SMALL
NO_CHARGES


@<TRIPOS>ATOM
   1 C1            -0.0187     1.5258     0.0104 C.3     
   2 C2             0.0021    -0.0041     0.0020 C.3     
   3 S3             0.8511    -0.5891    -1.4904 S.o2    
   4 O4             0.0816    -0.2970    -2.6488 O.2     
   5 O5             2.2357    -0.2745    -1.4322 O.2     
   6 N6             0.8022    -2.2402    -1.3733 N.am    
   7 C7            -0.4838    -2.9402    -1.4216 C.3     
   8 C8            -0.3089    -4.2789    -2.1424 C.3     
   9 C9            -1.6622    -4.9923    -2.2215 C.3     
  10 N10           -2.2174    -5.1049    -0.8659 N.am    
  11 C11           -2.3444    -3.8888    -0.0512 C.3     
  12 C12           -0.9834    -3.1877     0.0036 C.3     
  13 C13           -2.6033    -6.3010    -0.3790 C.2     
  14 O14           -2.4938    -7.2975    -1.0616 O.2     
  15 C15           -3.1710    -6.4001     1.0134 C.3     
  16 O16           -3.5029    -7.7608     1.2968 O.3     
  17 C17           -4.0311    -8.0254     2.5222 C.ar    
  18 C18           -5.4046    -7.9821     2.7099 C.ar    
  19 Cl19          -6.4496    -7.5896     1.3804 Cl      
  20 C20           -5.9428    -8.2520     3.9555 C.ar    
  21 C21           -5.1139    -8.5647     5.0174 C.ar    
  22 C22           -3.7388    -8.6091     4.8377 C.ar    
  23 C23           -3.1951    -8.3448     3.5854 C.ar    
  24 O24           -1.8357    -8.4507     3.6677 O.3     
  25 C25           -1.5803    -9.1810     4.8821 C.3     
  26 O26           -2.7218    -8.8861     5.7060 O.3     
  27 C27           -1.5006   -10.6827     4.5999 C.3     
  28 C28           -0.2926    -8.6880     5.5454 C.3     
  29 Cl29          -5.7951    -8.9019     6.5782 Cl      
  30 H30            1.0039     1.9031     0.0027 H       
  31 H31           -0.5459     1.8868    -0.8726 H       
  32 H32           -0.5289     1.8773     0.9072 H       
  33 H33            0.5293    -0.3651     0.8851 H       
  34 H34           -1.0205    -0.3814     0.0098 H       
  35 H35            1.6251    -2.7439    -1.2727 H       
  36 H36           -1.2093    -2.3301    -1.9597 H       
  37 H37            0.0692    -4.1031    -3.1495 H       
  38 H38            0.3978    -4.8993    -1.5911 H       
  39 H39           -2.3428    -4.4163    -2.8485 H       
  40 H40           -1.5264    -5.9876    -2.6446 H       
  41 H41           -3.0806    -3.2228    -0.5012 H       
  42 H42           -2.6587    -4.1560     0.9577 H       
  43 H43           -0.2704    -3.8184     0.5347 H       
  44 H44           -1.0854    -2.2354     0.5239 H       
  45 H45           -2.4314    -6.0490     1.7331 H       
  46 H46           -4.0680    -5.7849     1.0848 H       
  47 H47           -7.0127    -8.2180     4.0990 H       
  48 H48           -0.6853   -10.8788     3.9036 H       
  49 H49           -1.3195   -11.2184     5.5318 H       
  50 H50           -2.4405   -11.0206     4.1633 H       
  51 H51           -0.3845    -7.6259     5.7724 H       
  52 H52           -0.1234    -9.2435     6.4678 H       
  53 H53            0.5473    -8.8435     4.8683 H       
@<TRIPOS>BOND
   1    1    2 1
   2    1   30 1
   3    1   31 1
   4    1   32 1
   5    2    3 1
   6    2   33 1
   7    2   34 1
   8    3    4 2
   9    3    5 2
  10    3    6 am
  11    6    7 1
  12    6   35 1
  13    7    8 1
  14    7   12 1
  15    7   36 1
  16    8    9 1
  17    8   37 1
  18    8   38 1
  19    9   10 1
  20    9   39 1
  21    9   40 1
  22   10   11 1
  23   10   13 am
  24   11   12 1
  25   11   41 1
  26   11   42 1
  27   12   43 1
  28   12   44 1
  29   13   14 2
  30   13   15 1
  31   15   16 1
  32   15   45 1
  33   15   46 1
  34   16   17 1
  35   17   18 ar
  36   17   23 ar
  37   18   19 1
  38   18   20 ar
  39   20   21 ar
  40   20   47 1
  41   21   22 ar
  42   21   29 1
  43   22   23 ar
  44   22   26 1
  45   23   24 1
  46   24   25 1
  47   25   26 1
  48   25   27 1
  49   25   28 1
  50   27   48 1
  51   27   49 1
  52   27   50 1
  53   28   51 1
  54   28   52 1
  55   28   53 1

#	End of record

