#	Name: ASD00170860
#	Creating user name:	WinNT
#	Creation time:	15. 06. 2019 18:32

#	Modifying user name:	WinNT
#	Modification time:	15. 06. 2019 18:32

#	Program:	/corina/corina34_cracker 3.40 0067  02.08.2006

@<TRIPOS>MOLECULE
ASD00170860
  72   77    0    0    0
SMALL
NO_CHARGES


@<TRIPOS>ATOM
   1 C1             0.4929    -0.3975    -2.1450 C.2     
   2 N2            -0.4194    -0.4597    -1.1584 N.am    
   3 C3            -0.1593     0.4485    -0.2007 C.2     
   4 C4             1.0544     1.2006    -0.5820 C.ar    
   5 C5             1.7777     2.2300    -0.0013 C.ar    
   6 C6             2.9043     2.7239    -0.6403 C.ar    
   7 C7             3.3107     2.1967    -1.8518 C.ar    
   8 C8             2.5973     1.1667    -2.4448 C.ar    
   9 C9             1.4689     0.6629    -1.8178 C.ar    
  10 O10            0.5140    -1.0989    -3.1362 O.2     
  11 O11           -0.8128     0.6218     0.8082 O.2     
  12 C12           -1.4889    -1.3448    -1.1320 C.2     
  13 C13           -1.4284    -2.6282    -0.6482 C.2     
  14 C14           -2.6938    -3.3231    -0.7447 C.2     
  15 C15           -3.6556    -2.5833    -1.2794 C.2     
  16 S16           -3.0590    -0.9849    -1.6890 S.3     
  17 C17           -2.8981    -4.7434    -0.2842 C.3     
  18 N18           -2.6223    -4.8358     1.1558 N.3     
  19 C19           -3.7399    -4.2958     1.9415 C.3     
  20 C20           -3.7367    -2.7685     1.8500 C.3     
  21 C21           -4.9007    -2.2061     2.6683 C.3     
  22 C22           -6.2209    -2.7474     2.1161 C.3     
  23 C23           -6.2240    -4.2747     2.2076 C.3     
  24 C24           -5.0601    -4.8371     1.3892 C.3     
  25 C25           -2.3240    -6.2199     1.5469 C.3     
  26 C26           -1.1808    -6.7586     0.6845 C.3     
  27 C27           -0.8702    -8.2003     1.0920 C.3     
  28 C28           -0.4585    -8.2365     2.5651 C.3     
  29 C29           -1.6018    -7.6978     3.4275 C.3     
  30 C30           -1.9124    -6.2562     3.0201 C.3     
  31 C31           -0.2128    -3.2298    -0.0946 C.2     
  32 C32            0.6597    -4.0581    -0.9541 C.ar    
  33 C33            1.7662    -4.7109    -0.4074 C.ar    
  34 C34            2.5760    -5.4824    -1.2139 C.ar    
  35 C35            2.2935    -5.6103    -2.5639 C.ar    
  36 C36            1.1972    -4.9651    -3.1120 C.ar    
  37 C37            0.3771    -4.1951    -2.3145 C.ar    
  38 O38            0.0789    -3.0478     1.0733 O.2     
  39 Cl39           3.3179    -6.5828    -3.5731 Cl      
  40 Br40          -5.4320    -3.1693    -1.5566 Br      
  41 H41            1.4647     2.6461     0.9449 H       
  42 H42            3.4684     3.5264    -0.1885 H       
  43 H43            4.1901     2.5903    -2.3399 H       
  44 H44            2.9192     0.7590    -3.3916 H       
  45 H45           -3.9282    -5.0433    -0.4768 H       
  46 H46           -2.2203    -5.4024    -0.8269 H       
  47 H47           -3.6309    -4.5976     2.9832 H       
  48 H48           -2.7962    -2.3829     2.2434 H       
  49 H49           -3.8457    -2.4668     0.8083 H       
  50 H50           -4.7917    -2.5079     3.7101 H       
  51 H51           -4.8984    -1.1181     2.6031 H       
  52 H52           -7.0501    -2.3468     2.6991 H       
  53 H53           -6.3299    -2.4456     1.0744 H       
  54 H54           -6.1150    -4.5765     3.2493 H       
  55 H55           -7.1646    -4.6603     1.8141 H       
  56 H56           -5.1691    -4.5353     0.3475 H       
  57 H57           -5.0623    -5.9251     1.4544 H       
  58 H58           -3.2105    -6.8375     1.4021 H       
  59 H59           -1.4741    -6.7328    -0.3650 H       
  60 H60           -0.2944    -6.1411     0.8294 H       
  61 H61           -1.7566    -8.8178     0.9471 H       
  62 H62           -0.0557    -8.5840     0.4776 H       
  63 H63           -0.2372    -9.2636     2.8554 H       
  64 H64            0.4279    -7.6190     2.7099 H       
  65 H65           -2.4882    -8.3154     3.2827 H       
  66 H66           -1.3085    -7.7237     4.4770 H       
  67 H67           -1.0259    -5.6387     3.1649 H       
  68 H68           -2.7268    -5.8724     3.6345 H       
  69 H69            1.9876    -4.6116     0.6450 H       
  70 H70            3.4323    -5.9876    -0.7922 H       
  71 H71            0.9822    -5.0682    -4.1654 H       
  72 H72           -0.4798    -3.6958    -2.7421 H       
@<TRIPOS>BOND
   1    1    2 am
   2    1    9 1
   3    1   10 2
   4    2    3 am
   5    2   12 1
   6    3    4 1
   7    3   11 2
   8    4    5 ar
   9    4    9 ar
  10    5    6 ar
  11    5   41 1
  12    6    7 ar
  13    6   42 1
  14    7    8 ar
  15    7   43 1
  16    8    9 ar
  17    8   44 1
  18   12   13 2
  19   12   16 1
  20   13   14 1
  21   13   31 1
  22   14   15 2
  23   14   17 1
  24   15   16 1
  25   15   40 1
  26   17   18 1
  27   17   45 1
  28   17   46 1
  29   18   19 1
  30   18   25 1
  31   19   20 1
  32   19   24 1
  33   19   47 1
  34   20   21 1
  35   20   48 1
  36   20   49 1
  37   21   22 1
  38   21   50 1
  39   21   51 1
  40   22   23 1
  41   22   52 1
  42   22   53 1
  43   23   24 1
  44   23   54 1
  45   23   55 1
  46   24   56 1
  47   24   57 1
  48   25   26 1
  49   25   30 1
  50   25   58 1
  51   26   27 1
  52   26   59 1
  53   26   60 1
  54   27   28 1
  55   27   61 1
  56   27   62 1
  57   28   29 1
  58   28   63 1
  59   28   64 1
  60   29   30 1
  61   29   65 1
  62   29   66 1
  63   30   67 1
  64   30   68 1
  65   31   32 1
  66   31   38 2
  67   32   33 ar
  68   32   37 ar
  69   33   34 ar
  70   33   69 1
  71   34   35 ar
  72   34   70 1
  73   35   36 ar
  74   35   39 1
  75   36   37 ar
  76   36   71 1
  77   37   72 1

#	End of record

