#	Name: ASD01880082
#	Creating user name:	WinNT
#	Creation time:	15. 06. 2019 19:40

#	Modifying user name:	WinNT
#	Modification time:	15. 06. 2019 19:40

#	Program:	/corina/corina34_cracker 3.40 0067  02.08.2006

@<TRIPOS>MOLECULE
ASD01880082
  51   52    0    0    0
SMALL
NO_CHARGES


@<TRIPOS>ATOM
   1 C1            -0.2168     1.2955    -1.3060 C.ar    
   2 C2            -0.1739    -0.0779    -1.4524 C.ar    
   3 N3             0.9375    -0.7472    -1.2153 N.ar    
   4 C4             2.0440    -0.1407    -0.8328 C.ar    
   5 C5             2.0768     1.2311    -0.6657 C.ar    
   6 C6             0.9276     1.9684    -0.9052 C.ar    
   7 C7             3.3455     1.9163    -0.2277 C.3     
   8 N8             4.1306     2.2903    -1.4068 N.am    
   9 C9             3.8681     3.4922    -2.0680 C.ar    
  10 S10            5.3291     1.2879    -1.9555 S.o2    
  11 C11            4.4970     0.1927    -3.1382 C.3     
  12 O12            6.2308     2.1557    -2.6287 O.2     
  13 O13            5.7338     0.5619    -0.8030 O.2     
  14 C14            3.2809     4.5477    -1.3842 C.ar    
  15 C15            3.0220     5.7389    -2.0440 C.ar    
  16 C16            3.3502     5.8737    -3.3856 C.ar    
  17 C17            3.9349     4.8216    -4.0651 C.ar    
  18 C18            4.1998     3.6349    -3.4100 C.ar    
  19 O19            2.4467     6.7741    -1.3775 O.3     
  20 C20            2.0995     7.9277    -2.1461 C.3     
  21 C21            0.9641     8.6812    -1.4505 C.3     
  22 C22           -0.2935     7.8100    -1.4377 C.3     
  23 C23            3.3187     8.8437    -2.2701 C.3     
  24 C24           -1.4289     8.5635    -0.7421 C.3     
  25 C25            5.5406    -0.6499    -3.8743 C.3     
  26 F26            6.2556    -1.4189    -2.9499 F       
  27 F27            4.8989    -1.4946    -4.7864 F       
  28 F28            6.4216     0.1934    -4.5599 F       
  29 H29           -1.1288     1.8384    -1.5056 H       
  30 H30           -1.0608    -0.6094    -1.7642 H       
  31 H31            2.9349    -0.7224    -0.6475 H       
  32 H32            0.9236     3.0415    -0.7828 H       
  33 H33            3.0969     2.8116     0.3422 H       
  34 H34            3.9278     1.2384     0.3964 H       
  35 H35            3.8107    -0.4644    -2.6041 H       
  36 H36            3.9400     0.7918    -3.8584 H       
  37 H37            3.0258     4.4409    -0.3402 H       
  38 H38            3.1480     6.8018    -3.8996 H       
  39 H39            4.1889     4.9292    -5.1093 H       
  40 H40            4.6571     2.8145    -3.9431 H       
  41 H41            1.7751     7.6182    -3.1396 H       
  42 H42            1.2560     8.9131    -0.4262 H       
  43 H43            0.7594     9.6069    -1.9884 H       
  44 H44           -0.5853     7.5781    -2.4620 H       
  45 H45           -0.0887     6.8843    -0.8998 H       
  46 H46            4.1276     8.3069    -2.7657 H       
  47 H47            3.0540     9.7236    -2.8564 H       
  48 H48            3.6432     9.1532    -1.2766 H       
  49 H49           -1.1371     8.7954     0.2822 H       
  50 H50           -1.6337     9.4892    -1.2799 H       
  51 H51           -2.3249     7.9428    -0.7329 H       
@<TRIPOS>BOND
   1    1    2 ar
   2    1    6 ar
   3    1   29 1
   4    2    3 ar
   5    2   30 1
   6    3    4 ar
   7    4    5 ar
   8    4   31 1
   9    5    6 ar
  10    5    7 1
  11    6   32 1
  12    7    8 1
  13    7   33 1
  14    7   34 1
  15    8    9 1
  16    8   10 am
  17    9   14 ar
  18    9   18 ar
  19   10   11 1
  20   10   12 2
  21   10   13 2
  22   11   25 1
  23   11   35 1
  24   11   36 1
  25   14   15 ar
  26   14   37 1
  27   15   16 ar
  28   15   19 1
  29   16   17 ar
  30   16   38 1
  31   17   18 ar
  32   17   39 1
  33   18   40 1
  34   19   20 1
  35   20   21 1
  36   20   23 1
  37   20   41 1
  38   21   22 1
  39   21   42 1
  40   21   43 1
  41   22   24 1
  42   22   44 1
  43   22   45 1
  44   23   46 1
  45   23   47 1
  46   23   48 1
  47   24   49 1
  48   24   50 1
  49   24   51 1
  50   25   26 1
  51   25   27 1
  52   25   28 1

#	End of record

