#	Name: ASD01230014
#	Creating user name:	WinNT
#	Creation time:	15. 06. 2019 19:11

#	Modifying user name:	WinNT
#	Modification time:	15. 06. 2019 19:11

#	Program:	/corina/corina34_cracker 3.40 0067  02.08.2006

@<TRIPOS>MOLECULE
ASD01230014
  50   52    0    0    0
SMALL
NO_CHARGES


@<TRIPOS>ATOM
   1 C1            -3.1871     1.3101     1.3702 C.3     
   2 C2            -2.8270    -0.1754     1.4380 C.3     
   3 C3            -4.1030    -1.0144     1.3428 C.3     
   4 S4            -1.7242    -0.5937     0.0598 S.o2    
   5 O5            -2.4196    -0.5147    -1.1770 O.2     
   6 O6            -0.4572     0.0272     0.2288 O.2     
   7 N7            -1.4163    -2.2093     0.2526 N.am    
   8 C8            -1.6356    -3.2291     2.4993 C.3     
   9 C9            -0.6738    -2.6786     1.4251 C.3     
  10 C10            0.1772    -3.9179     1.0757 C.3     
  11 C11            0.1446    -4.7838     2.3171 C.ar    
  12 C12            0.9616    -5.8329     2.6971 C.ar    
  13 C13            0.7372    -6.4918     3.9025 C.ar    
  14 C14           -0.3141    -6.0890     4.7237 C.ar    
  15 C15           -1.1236    -5.0421     4.3370 C.ar    
  16 C16           -0.8977    -4.3879     3.1359 C.ar    
  17 C17            1.6130    -7.6180     4.3110 C.ar    
  18 C18            2.6639    -8.0199     3.4881 C.ar    
  19 C19            3.4778    -9.0677     3.8694 C.ar    
  20 C20            3.2546    -9.7211     5.0667 C.ar    
  21 C21            2.2096    -9.3273     5.8930 C.ar    
  22 C22            1.3908    -8.2721     5.5195 C.ar    
  23 N23            1.9864    -9.9916     7.1043 N.am    
  24 C24            3.0299   -10.4509     7.8232 C.2     
  25 C25            2.7984   -11.0634     9.1805 C.3     
  26 O26            4.1552   -10.3713     7.3777 O.2     
  27 H27           -3.8498     1.5614     2.1984 H       
  28 H28           -2.2781     1.9077     1.4380 H       
  29 H29           -3.6900     1.5193     0.4261 H       
  30 H30           -2.3241    -0.3847     2.3821 H       
  31 H31           -3.8405    -2.0715     1.3015 H       
  32 H32           -4.7260    -0.8286     2.2177 H       
  33 H33           -4.6514    -0.7407     0.4415 H       
  34 H34           -1.7275    -2.8450    -0.4107 H       
  35 H35           -1.8498    -2.4623     3.2438 H       
  36 H36           -2.5594    -3.5771     2.0371 H       
  37 H37           -0.0528    -1.8811     1.8332 H       
  38 H38           -0.2599    -4.4509     0.2312 H       
  39 H39            1.2011    -3.6216     0.8479 H       
  40 H40            1.7750    -6.1418     2.0573 H       
  41 H41           -0.4945    -6.5957     5.6602 H       
  42 H42           -1.9384    -4.7299     4.9734 H       
  43 H43            2.8413    -7.5116     2.5518 H       
  44 H44            4.2910    -9.3780     3.2301 H       
  45 H45            3.8942   -10.5403     5.3606 H       
  46 H46            0.5803    -7.9616     6.1623 H       
  47 H47            1.0808   -10.1215     7.4265 H       
  48 H48            2.6357   -12.1357     9.0723 H       
  49 H49            3.6707   -10.8901     9.8108 H       
  50 H50            1.9216   -10.6073     9.6402 H       
@<TRIPOS>BOND
   1    1    2 1
   2    1   27 1
   3    1   28 1
   4    1   29 1
   5    2    3 1
   6    2    4 1
   7    2   30 1
   8    3   31 1
   9    3   32 1
  10    3   33 1
  11    4    5 2
  12    4    6 2
  13    4    7 am
  14    7    9 1
  15    7   34 1
  16    8    9 1
  17    8   16 1
  18    8   35 1
  19    8   36 1
  20    9   10 1
  21    9   37 1
  22   10   11 1
  23   10   38 1
  24   10   39 1
  25   11   12 ar
  26   11   16 ar
  27   12   13 ar
  28   12   40 1
  29   13   14 ar
  30   13   17 1
  31   14   15 ar
  32   14   41 1
  33   15   16 ar
  34   15   42 1
  35   17   18 ar
  36   17   22 ar
  37   18   19 ar
  38   18   43 1
  39   19   20 ar
  40   19   44 1
  41   20   21 ar
  42   20   45 1
  43   21   22 ar
  44   21   23 1
  45   22   46 1
  46   23   24 am
  47   23   47 1
  48   24   25 1
  49   24   26 2
  50   25   48 1
  51   25   49 1
  52   25   50 1

#	End of record

