#	Name: ASD03640001
#	Creating user name:	WinNT
#	Creation time:	15. 06. 2019 20:43

#	Modifying user name:	WinNT
#	Modification time:	15. 06. 2019 20:43

#	Program:	/corina/corina34_cracker 3.40 0067  02.08.2006

@<TRIPOS>MOLECULE
ASD03640001
  14   15    0    0    0
SMALL
NO_CHARGES


@<TRIPOS>ATOM
   1 N1            -0.0163     1.3527     0.0095 N.am    
   2 C2             0.0021    -0.0041     0.0020 C.2     
   3 N3             1.1147    -0.6832    -0.0119 N.2     
   4 C4             2.3052    -0.0671    -0.0200 C.2     
   5 C5             2.3595     1.3300    -0.0134 C.2     
   6 C6             1.1402     2.0524     0.0022 C.2     
   7 N7             3.6035    -0.4974    -0.0343 N.pl3   
   8 C8             4.4014     0.6075    -0.0363 C.2     
   9 N9             3.6662     1.6819    -0.0239 N.2     
  10 O10            1.1346     3.2713     0.0080 O.2     
  11 H11           -0.8645     1.8233     0.0161 H       
  12 H12           -0.9361    -0.5390     0.0081 H       
  13 H13            3.9019    -1.4204    -0.0415 H       
  14 H14            5.4812     0.5939    -0.0465 H       
@<TRIPOS>BOND
   1    1    2 1
   2    1    6 am
   3    1   11 1
   4    2    3 2
   5    2   12 1
   6    3    4 1
   7    4    5 2
   8    4    7 1
   9    5    6 1
  10    5    9 1
  11    6   10 2
  12    7    8 1
  13    7   13 1
  14    8    9 2
  15    8   14 1

#	End of record

