#	Name: ASD05313036
#	Creating user name:	WinNT
#	Creation time:	15. 06. 2019 20:58

#	Modifying user name:	WinNT
#	Modification time:	15. 06. 2019 20:58

#	Program:	/corina/corina34_cracker 3.40 0067  02.08.2006

@<TRIPOS>MOLECULE
ASD05313036
  41   44    0    0    0
SMALL
NO_CHARGES


@<TRIPOS>ATOM
   1 C1            -0.0725     0.8203     1.0209 C.2     
   2 C2             0.1131    -0.6165     0.5948 C.3     
   3 N3             0.9304     1.7330     1.0470 N.pl3   
   4 N4             1.4566    -0.7172    -0.0060 N.am    
   5 C5             2.5708    -0.0355     0.6701 C.3     
   6 C6             2.3172     1.4766     0.6621 C.3     
   7 N7            -0.9039     2.6444     1.7027 N.2     
   8 N8            -1.1573     1.4122     1.4223 N.2     
   9 C9             0.3723     2.8934     1.4900 C.2     
  10 C10            1.0657     4.1839     1.6956 C.ar    
  11 C11            0.3497     5.2883     2.1575 C.ar    
  12 C12            1.0126     6.4883     2.3453 C.ar    
  13 C13            2.3708     6.5461     2.0651 C.ar    
  14 C14            3.0188     5.4123     1.6099 C.ar    
  15 N15            2.3659     4.2804     1.4442 N.ar    
  16 C16           -1.1249     5.1762     2.4475 C.3     
  17 C17            1.6574    -1.4143    -1.1419 C.2     
  18 O18            2.7496    -1.4047    -1.6759 O.2     
  19 C19            0.5511    -2.1896    -1.7376 C.ar    
  20 C20            0.3199    -2.1374    -3.1155 C.ar    
  21 C21           -0.7155    -2.8647    -3.6661 C.ar    
  22 C22           -1.5247    -3.6454    -2.8556 C.ar    
  23 C23           -1.2996    -3.7000    -1.4883 C.ar    
  24 C24           -0.2650    -2.9825    -0.9277 C.ar    
  25 F25           -2.5370    -4.3556    -3.3997 F       
  26 Cl26           1.3326    -1.1594    -4.1312 Cl      
  27 H27            0.0431    -1.2736     1.4617 H       
  28 H28           -0.6445    -0.8873    -0.1406 H       
  29 H29            2.6420    -0.3871     1.6994 H       
  30 H30            3.5017    -0.2514     0.1457 H       
  31 H31            2.4962     1.8703    -0.3384 H       
  32 H32            2.9877     1.9624     1.3710 H       
  33 H33            0.4848     7.3606     2.7015 H       
  34 H34            2.9165     7.4681     2.2011 H       
  35 H35            4.0755     5.4547     1.3908 H       
  36 H36           -1.2694     4.8806     3.4867 H       
  37 H37           -1.6036     6.1400     2.2740 H       
  38 H38           -1.5683     4.4270     1.7916 H       
  39 H39           -0.8958    -2.8254    -4.7302 H       
  40 H40           -1.9339    -4.3096    -0.8618 H       
  41 H41           -0.0881    -3.0300     0.1366 H       
@<TRIPOS>BOND
   1    1    2 1
   2    1    3 1
   3    1    8 2
   4    2    4 1
   5    2   27 1
   6    2   28 1
   7    3    6 1
   8    3    9 1
   9    4    5 1
  10    4   17 am
  11    5    6 1
  12    5   29 1
  13    5   30 1
  14    6   31 1
  15    6   32 1
  16    7    8 1
  17    7    9 2
  18    9   10 1
  19   10   11 ar
  20   10   15 ar
  21   11   12 ar
  22   11   16 1
  23   12   13 ar
  24   12   33 1
  25   13   14 ar
  26   13   34 1
  27   14   15 ar
  28   14   35 1
  29   16   36 1
  30   16   37 1
  31   16   38 1
  32   17   18 2
  33   17   19 1
  34   19   20 ar
  35   19   24 ar
  36   20   21 ar
  37   20   26 1
  38   21   22 ar
  39   21   39 1
  40   22   23 ar
  41   22   25 1
  42   23   24 ar
  43   23   40 1
  44   24   41 1

#	End of record

