#	Name: ASD04881004
#	Creating user name:	WinNT
#	Creation time:	15. 06. 2019 20:53

#	Modifying user name:	WinNT
#	Modification time:	15. 06. 2019 20:53

#	Program:	/corina/corina34_cracker 3.40 0067  02.08.2006

@<TRIPOS>MOLECULE
ASD04881004
  76   81    0    0    0
SMALL
NO_CHARGES


@<TRIPOS>ATOM
   1 C1             0.4801     1.1218    -0.4801 C.2     
   2 C2             1.6970     1.6911    -0.7248 C.2     
   3 C3             2.0760     3.0758    -0.4266 C.2     
   4 O4             1.2704     3.8304     0.0863 O.2     
   5 O5             2.4894     0.7562    -1.2890 O.3     
   6 C6             1.8079    -0.3906    -1.4087 C.2     
   7 C7             0.5610    -0.2085    -0.9206 C.2     
   8 N8             3.3166     3.5131    -0.7204 N.am    
   9 C9             3.6453     4.8625    -0.5372 C.ar    
  10 C10            4.9424     5.2215    -0.1587 C.ar    
  11 C11            5.2700     6.5598     0.0229 C.ar    
  12 C12            4.3185     7.5373    -0.1692 C.ar    
  13 C13            3.0202     7.1855    -0.5475 C.ar    
  14 C14            2.6894     5.8403    -0.7360 C.ar    
  15 C15            2.0013     8.2325    -0.7527 C.2     
  16 O16            0.8717     7.9254    -1.0819 O.2     
  17 N17            2.3224     9.5294    -0.5751 N.am    
  18 C18            1.3106    10.5690    -0.7788 C.3     
  19 C19            1.9211    11.9220    -0.5185 C.ar    
  20 N20            5.9072     4.2367     0.0370 N.3     
  21 C21            5.5756     3.3977     1.1971 C.3     
  22 C22            6.6149     2.2820     1.3301 C.3     
  23 N23            7.9510     2.8758     1.4779 N.3     
  24 C24            8.2826     3.7148     0.3179 C.3     
  25 C25            7.2434     4.8305     0.1849 C.3     
  26 C26            8.9188     1.8880     1.6743 C.ar    
  27 C27            8.9156     1.1321     2.8400 C.ar    
  28 C28            9.8736     0.1561     3.0306 C.ar    
  29 C29           10.8357    -0.0692     2.0630 C.ar    
  30 C30           10.8418     0.6812     0.9017 C.ar    
  31 C31            9.8830     1.6553     0.7020 C.ar    
  32 C32            7.8683     1.3775     3.8953 C.3     
  33 C33            2.5155    12.6219    -1.5537 C.ar    
  34 C34            3.0777    13.8646    -1.3232 C.ar    
  35 C35            3.0495    14.4140    -0.0577 C.ar    
  36 C36            2.4517    13.7134     0.9904 C.ar    
  37 C37            1.8811    12.4626     0.7500 C.ar    
  38 C38            2.4183    14.2960     2.3491 C.2     
  39 N39            2.9127    15.4520     2.6881 N.2     
  40 C40            2.7905    15.8079     3.9461 C.2     
  41 C41            2.1661    14.9329     4.7415 C.2     
  42 S42            1.6964    13.5408     3.7678 S.3     
  43 C43            3.3215    17.1207     4.4616 C.3     
  44 H44           -0.3770     1.6009    -0.0304 H       
  45 H45            2.1916    -1.3095    -1.8268 H       
  46 H46           -0.2252    -0.9476    -0.8773 H       
  47 H47            3.9818     2.8935    -1.0587 H       
  48 H48            6.2727     6.8341     0.3157 H       
  49 H49            4.5761     8.5765    -0.0269 H       
  50 H50            1.6879     5.5657    -1.0328 H       
  51 H51            3.2235     9.7743    -0.3125 H       
  52 H52            0.9469    10.5260    -1.8055 H       
  53 H53            0.4798    10.4071    -0.0920 H       
  54 H54            5.5796     4.0079     2.1002 H       
  55 H55            4.5873     2.9594     1.0583 H       
  56 H56            6.3873     1.6757     2.2069 H       
  57 H57            6.5920     1.6555     0.4384 H       
  58 H58            9.2709     4.1531     0.4567 H       
  59 H59            8.2787     3.1046    -0.5853 H       
  60 H60            7.4709     5.4368    -0.6919 H       
  61 H61            7.2662     5.4570     1.0765 H       
  62 H62            9.8717    -0.4319     3.9366 H       
  63 H63           11.5842    -0.8328     2.2149 H       
  64 H64           11.5945     0.5028     0.1481 H       
  65 H65            9.8856     2.2381    -0.2072 H       
  66 H66            7.0330     0.6937     3.7442 H       
  67 H67            8.3005     1.2106     4.8819 H       
  68 H68            7.5137     2.4057     3.8232 H       
  69 H69            2.5408    12.1960    -2.5458 H       
  70 H70            3.5402    14.4058    -2.1354 H       
  71 H71            3.4894    15.3840     0.1211 H       
  72 H72            1.4130    11.9173     1.5561 H       
  73 H73            1.9782    15.0593     5.7975 H       
  74 H74            2.5496    17.8851     4.3722 H       
  75 H75            3.6056    17.0118     5.5083 H       
  76 H76            4.1934    17.4146     3.8772 H       
@<TRIPOS>BOND
   1    1    7 1
   2    1    2 2
   3    1   44 1
   4    2    3 1
   5    2    5 1
   6    3    4 2
   7    3    8 am
   8    5    6 1
   9    6    7 2
  10    6   45 1
  11    7   46 1
  12    8    9 1
  13    8   47 1
  14    9   10 ar
  15    9   14 ar
  16   10   11 ar
  17   10   20 1
  18   11   12 ar
  19   11   48 1
  20   12   13 ar
  21   12   49 1
  22   13   14 ar
  23   13   15 1
  24   14   50 1
  25   15   16 2
  26   15   17 am
  27   17   18 1
  28   17   51 1
  29   18   19 1
  30   18   52 1
  31   18   53 1
  32   19   33 ar
  33   19   37 ar
  34   20   21 1
  35   20   25 1
  36   21   22 1
  37   21   54 1
  38   21   55 1
  39   22   23 1
  40   22   56 1
  41   22   57 1
  42   23   24 1
  43   23   26 1
  44   24   25 1
  45   24   58 1
  46   24   59 1
  47   25   60 1
  48   25   61 1
  49   26   27 ar
  50   26   31 ar
  51   27   28 ar
  52   27   32 1
  53   28   29 ar
  54   28   62 1
  55   29   30 ar
  56   29   63 1
  57   30   31 ar
  58   30   64 1
  59   31   65 1
  60   32   66 1
  61   32   67 1
  62   32   68 1
  63   33   34 ar
  64   33   69 1
  65   34   35 ar
  66   34   70 1
  67   35   36 ar
  68   35   71 1
  69   36   37 ar
  70   36   38 1
  71   37   72 1
  72   38   39 2
  73   38   42 1
  74   39   40 1
  75   40   41 2
  76   40   43 1
  77   41   42 1
  78   41   73 1
  79   43   74 1
  80   43   75 1
  81   43   76 1

#	End of record

