#	Name: ASD01209244
#	Creating user name:	WinNT
#	Creation time:	15. 06. 2019 19:11

#	Modifying user name:	WinNT
#	Modification time:	15. 06. 2019 19:11

#	Program:	/corina/corina34_cracker 3.40 0067  02.08.2006

@<TRIPOS>MOLECULE
ASD01209244
  70   72    0    0    0
SMALL
NO_CHARGES


@<TRIPOS>ATOM
   1 C1             2.2555     1.5951     0.4075 C.3     
   2 C2            -2.1569    -9.5380     2.7462 C.ar    
   3 C3            -1.9376    -9.4224     4.1109 C.ar    
   4 C4            -1.5406    -8.2083     4.6535 C.ar    
   5 C5            -1.3608    -7.1067     3.8333 C.ar    
   6 C6            -1.5803    -7.2188     2.4598 C.ar    
   7 C7            -1.9748    -8.4425     1.9180 C.ar    
   8 O8            -1.3279    -8.1001     5.9913 O.3     
   9 C9            -1.3901    -6.0456     1.5805 C.2     
  10 N10           -1.0041    -4.8658     2.1052 N.am    
  11 O11           -1.5819    -6.1452     0.3842 O.2     
  12 C12           -0.8239    -3.7541     1.2721 C.2     
  13 P13            1.7764    -0.1591     0.2790 P.3     
  14 O14            2.4757    -0.9393     1.3243 O.2     
  15 C15           -0.0255    -0.3152     0.5075 C.3     
  16 C16           -1.0091    -3.7277    -0.1196 C.2     
  17 N17           -0.4579    -2.5539     1.6565 N.2     
  18 N18           -0.3947    -1.7328     0.5234 N.pl3   
  19 C19           -0.7368    -2.4751    -0.5507 C.2     
  20 O20           -2.5456   -10.7292     2.2199 O.3     
  21 C21           -2.6375   -10.8104     0.7962 C.3     
  22 C22           -2.4627   -12.2652     0.3560 C.3     
  23 C23           -2.2839    -7.4928     6.7422 C.ar    
  24 C24           -3.4582    -7.0524     6.1486 C.ar    
  25 C25           -4.4284    -6.4353     6.9142 C.ar    
  26 C26           -4.2301    -6.2563     8.2708 C.ar    
  27 C27           -2.0898    -7.3171     8.1048 C.ar    
  28 O28           -3.5521   -13.0467     0.8503 O.3     
  29 C29           -3.4851   -14.4288     0.4933 C.3     
  30 C30           -4.0078   -10.3019     0.3437 C.3     
  31 C31           -3.0608    -6.6942     8.8648 C.ar    
  32 S32           -5.4694    -5.4683     9.2443 S.o2    
  33 O33           -4.7535    -4.9081    10.3365 O.2     
  34 O34           -6.1652    -4.6403     8.3226 O.2     
  35 C35           -6.5324    -6.8254     9.8090 C.3     
  36 O36            2.1839    -0.7217    -1.1734 O.3     
  37 C37            3.5698    -1.4009    -3.0332 C.3     
  38 C38            3.5392    -0.8331    -1.6128 C.3     
  39 H39            3.3329     1.6884     0.2708 H       
  40 H40            1.7405     2.1697    -0.3624 H       
  41 H41            1.9796     1.9760     1.3908 H       
  42 H42           -2.0766   -10.2795     4.7531 H       
  43 H43           -1.0521    -6.1622     4.2563 H       
  44 H44           -2.1457    -8.5334     0.8555 H       
  45 H45           -0.8511    -4.7863     3.0598 H       
  46 H46           -0.3132     0.1459     1.4523 H       
  47 H47           -0.5404     0.1852    -0.3127 H       
  48 H48           -1.3146    -4.5600    -0.7363 H       
  49 H49           -0.7862    -2.1296    -1.5727 H       
  50 H50           -1.8560   -10.1982     0.3461 H       
  51 H51           -2.4439   -12.3157    -0.7327 H       
  52 H52           -1.5258   -12.6552     0.7540 H       
  53 H53           -3.6134    -7.1916     5.0889 H       
  54 H54           -5.3424    -6.0920     6.4526 H       
  55 H55           -1.1786    -7.6630     8.5700 H       
  56 H56           -3.4875   -14.5241    -0.5925 H       
  57 H57           -2.5695   -14.8636     0.8942 H       
  58 H58           -4.3472   -14.9529     0.9060 H       
  59 H59           -4.7893   -10.9141     0.7938 H       
  60 H60           -4.1324    -9.2654     0.6573 H       
  61 H61           -4.0779   -10.3638    -0.7423 H       
  62 H62           -2.9083    -6.5532     9.9246 H       
  63 H63           -5.9418    -7.5299    10.3946 H       
  64 H64           -7.3365    -6.4245    10.4260 H       
  65 H65           -6.9575    -7.3373     8.9457 H       
  66 H66            3.1033    -2.3860    -3.0408 H       
  67 H67            3.0244    -0.7354    -3.7023 H       
  68 H68            4.6035    -1.4858    -3.3683 H       
  69 H69            4.0057     0.1520    -1.6052 H       
  70 H70            4.0845    -1.4985    -0.9436 H       
@<TRIPOS>BOND
   1    1   13 1
   2    1   39 1
   3    1   40 1
   4    1   41 1
   5    2    3 ar
   6    2   20 1
   7    2    7 ar
   8    3    4 ar
   9    3   42 1
  10    4    5 ar
  11    4    8 1
  12    5    6 ar
  13    5   43 1
  14    6    7 ar
  15    6    9 1
  16    7   44 1
  17    8   23 1
  18    9   10 am
  19    9   11 2
  20   10   12 1
  21   10   45 1
  22   12   16 1
  23   12   17 2
  24   13   14 2
  25   13   36 1
  26   13   15 1
  27   15   18 1
  28   15   46 1
  29   15   47 1
  30   16   19 2
  31   16   48 1
  32   17   18 1
  33   18   19 1
  34   19   49 1
  35   20   21 1
  36   21   22 1
  37   21   30 1
  38   21   50 1
  39   22   28 1
  40   22   51 1
  41   22   52 1
  42   23   24 ar
  43   23   27 ar
  44   24   25 ar
  45   24   53 1
  46   25   26 ar
  47   25   54 1
  48   26   31 ar
  49   26   32 1
  50   27   31 ar
  51   27   55 1
  52   28   29 1
  53   29   56 1
  54   29   57 1
  55   29   58 1
  56   30   59 1
  57   30   60 1
  58   30   61 1
  59   31   62 1
  60   32   33 2
  61   32   34 2
  62   32   35 1
  63   35   63 1
  64   35   64 1
  65   35   65 1
  66   36   38 1
  67   37   38 1
  68   37   66 1
  69   37   67 1
  70   37   68 1
  71   38   69 1
  72   38   70 1

#	End of record

