#	Name: ASD06090003
#	Creating user name:	WinNT
#	Creation time:	15. 06. 2019 21:05

#	Modifying user name:	WinNT
#	Modification time:	15. 06. 2019 21:05

#	Program:	/corina/corina34_cracker 3.40 0067  02.08.2006

@<TRIPOS>MOLECULE
ASD06090003
  72   76    0    0    0
SMALL
NO_CHARGES


@<TRIPOS>ATOM
   1 N1            -0.0178     1.4648     0.0101 N.3     
   2 C2             0.0021    -0.0041     0.0020 C.3     
   3 C3            -1.4117    -0.5257     0.0127 C.ar    
   4 C4            -2.0692    -0.7576    -1.1825 C.ar    
   5 C5            -3.3635    -1.2346    -1.1801 C.ar    
   6 C6            -4.0101    -1.4839     0.0324 C.ar    
   7 C7            -3.3403    -1.2480     1.2349 C.ar    
   8 C8            -2.0443    -0.7758     1.2177 C.ar    
   9 C9            -5.3958    -1.9941     0.0429 C.2     
  10 C10           -5.8951    -3.0218     0.8270 C.2     
  11 C11           -7.3124    -3.1177     0.4438 C.2     
  12 N12           -7.5150    -2.2013    -0.4710 N.2     
  13 N13           -6.4375    -1.5426    -0.7130 N.pl3   
  14 C14           -6.3386    -0.4517    -1.6859 C.3     
  15 N15           -5.4165    -3.8681     1.7693 N.2     
  16 C16           -6.1802    -4.7526     2.3335 C.2     
  17 N17           -7.5003    -4.9143     2.0436 N.am    
  18 C18           -8.1209    -4.1416     1.1220 C.2     
  19 O19           -9.3012    -4.2886     0.8646 O.2     
  20 C20           -8.2663    -5.9477     2.7447 C.3     
  21 C21           -8.8754    -5.3558     4.0173 C.3     
  22 C22           -9.5703    -6.4632     4.8128 C.3     
  23 C23          -10.2085    -5.8610     6.0685 C.3     
  24 N24           -9.1770    -5.1338     6.8209 N.am    
  25 C25           -8.3861    -4.1090     6.1259 C.3     
  26 C26           -7.7684    -4.7309     4.8695 C.3     
  27 O27           -9.8295    -4.3516     3.6660 O.3     
  28 C28           -8.9607    -5.4015     8.1240 C.2     
  29 C29           -7.8990    -4.6470     8.8821 C.3     
  30 O30           -9.6205    -6.2495     8.6865 O.2     
  31 C31           -7.8591    -5.1394    10.3301 C.3     
  32 C32           -6.7179    -4.4743    11.0556 C.ar    
  33 C33           -9.1772    -4.7902    11.0240 C.3     
  34 C34           -5.7085    -5.2413    11.6067 C.ar    
  35 C35           -4.6617    -4.6312    12.2722 C.ar    
  36 C36           -4.6241    -3.2541    12.3862 C.ar    
  37 C37           -5.6330    -2.4870    11.8344 C.ar    
  38 C38           -6.6776    -3.0969    11.1651 C.ar    
  39 H39            0.9191     1.8392     0.0032 H       
  40 H40           -0.5563     1.8234    -0.7642 H       
  41 H41            0.5123    -0.3556    -0.8948 H       
  42 H42            0.5293    -0.3651     0.8851 H       
  43 H43           -1.5680    -0.5644    -2.1194 H       
  44 H44           -3.8758    -1.4145    -2.1137 H       
  45 H45           -3.8346    -1.4383     2.1761 H       
  46 H46           -1.5250    -0.5933     2.1469 H       
  47 H47           -6.5633     0.4949    -1.1944 H       
  48 H48           -5.3282    -0.4187    -2.0934 H       
  49 H49           -7.0509    -0.6196    -2.4937 H       
  50 H50           -5.7416    -5.4002     3.0782 H       
  51 H51           -9.0629    -6.3123     2.0962 H       
  52 H52           -7.6057    -6.7736     3.0083 H       
  53 H53          -10.3430    -6.9235     4.1970 H       
  54 H54           -8.8383    -7.2171     5.1026 H       
  55 H55          -11.0036    -5.1733     5.7804 H       
  56 H56          -10.6189    -6.6583     6.6882 H       
  57 H57           -9.0326    -3.2785     5.8424 H       
  58 H58           -7.5942    -3.7504     6.7833 H       
  59 H59           -7.0534    -5.5011     5.1588 H       
  60 H60           -7.2586    -3.9582     4.2941 H       
  61 H61           -9.4584    -3.6168     3.1587 H       
  62 H62           -6.9292    -4.8158     8.4140 H       
  63 H63           -8.1293    -3.5817     8.8667 H       
  64 H64           -7.7170    -6.2200    10.3426 H       
  65 H65           -9.1488    -5.1410    12.0556 H       
  66 H66           -9.3193    -3.7096    11.0115 H       
  67 H67          -10.0026    -5.2713    10.4993 H       
  68 H68           -5.7379    -6.3172    11.5176 H       
  69 H69           -3.8734    -5.2305    12.7034 H       
  70 H70           -3.8066    -2.7775    12.9068 H       
  71 H71           -5.6038    -1.4111    11.9237 H       
  72 H72           -7.4658    -2.4976    10.7339 H       
@<TRIPOS>BOND
   1    1    2 1
   2    1   39 1
   3    1   40 1
   4    2    3 1
   5    2   41 1
   6    2   42 1
   7    3    4 ar
   8    3    8 ar
   9    4    5 ar
  10    4   43 1
  11    5    6 ar
  12    5   44 1
  13    6    7 ar
  14    6    9 1
  15    7    8 ar
  16    7   45 1
  17    8   46 1
  18    9   10 2
  19    9   13 1
  20   10   11 1
  21   10   15 1
  22   11   12 2
  23   11   18 1
  24   12   13 1
  25   13   14 1
  26   14   47 1
  27   14   48 1
  28   14   49 1
  29   15   16 2
  30   16   17 1
  31   16   50 1
  32   17   18 am
  33   17   20 1
  34   18   19 2
  35   20   21 1
  36   20   51 1
  37   20   52 1
  38   21   22 1
  39   21   27 1
  40   21   26 1
  41   22   23 1
  42   22   53 1
  43   22   54 1
  44   23   24 1
  45   23   55 1
  46   23   56 1
  47   24   25 1
  48   24   28 am
  49   25   26 1
  50   25   57 1
  51   25   58 1
  52   26   59 1
  53   26   60 1
  54   27   61 1
  55   28   29 1
  56   28   30 2
  57   29   31 1
  58   29   62 1
  59   29   63 1
  60   31   32 1
  61   31   33 1
  62   31   64 1
  63   32   34 ar
  64   32   38 ar
  65   33   65 1
  66   33   66 1
  67   33   67 1
  68   34   35 ar
  69   34   68 1
  70   35   36 ar
  71   35   69 1
  72   36   37 ar
  73   36   70 1
  74   37   38 ar
  75   37   71 1
  76   38   72 1

#	End of record

