#	Name: ASD01812553
#	Creating user name:	WinNT
#	Creation time:	15. 06. 2019 19:28

#	Modifying user name:	WinNT
#	Modification time:	15. 06. 2019 19:28

#	Program:	/corina/corina34_cracker 3.40 0067  02.08.2006

@<TRIPOS>MOLECULE
ASD01812553
  48   51    0    0    0
SMALL
NO_CHARGES


@<TRIPOS>ATOM
   1 F1            -0.0122    -0.0023     0.0255 F       
   2 C2            -0.0270     1.3486     0.0276 C.ar    
   3 C3            -1.2418     2.0235     0.0488 C.ar    
   4 C4            -1.2725     3.4016     0.0511 C.ar    
   5 F5            -2.4551     4.0545     0.0717 F       
   6 C6            -0.0735     4.1199     0.0326 C.ar    
   7 C7             0.2568     5.5477     0.0284 C.2     
   8 C8             1.5953     5.6406     0.0063 C.2     
   9 N9             2.1496     4.3882    -0.0040 N.pl3   
  10 C10            3.5866     4.1040    -0.0277 C.3     
  11 C11            4.0322     3.8860    -1.4507 C.ar    
  12 C12            4.0016     2.6168    -1.9977 C.ar    
  13 C13            4.4103     2.4168    -3.3030 C.ar    
  14 C14            4.8492     3.4860    -4.0614 C.ar    
  15 C15            4.8790     4.7552    -3.5146 C.ar    
  16 C16            4.4662     4.9559    -2.2107 C.ar    
  17 C17            1.1550     3.4360     0.0117 C.ar    
  18 C18            1.1639     2.0448     0.0144 C.ar    
  19 S19           -0.8866     6.8881     0.0477 S.o2    
  20 O20           -1.7551     6.5922     1.1328 O.2     
  21 O21           -0.0663     8.0483     0.0612 O.2     
  22 C22           -1.7705     6.7518    -1.5305 C.3     
  23 C23           -2.7891     7.8577    -1.6330 C.2     
  24 O24           -2.9071     8.6589    -0.7303 O.2     
  25 N25           -3.5688     7.9564    -2.7278 N.am    
  26 C26           -4.5832     8.9114    -2.7774 C.ar    
  27 C27           -5.3128     9.0809    -3.9483 C.ar    
  28 C28           -6.3171    10.0325    -3.9839 C.ar    
  29 C29           -6.5575    10.7845    -2.8423 C.ar    
  30 C30           -5.7935    10.5627    -1.7133 C.ar    
  31 N31           -4.8464     9.6447    -1.7071 N.ar    
  32 H32           -2.1663     1.4654     0.0630 H       
  33 H33            2.1527     6.5656    -0.0025 H       
  34 H34            4.1308     4.9470     0.3983 H       
  35 H35            3.7893     3.2074     0.5580 H       
  36 H36            3.6587     1.7815    -1.4052 H       
  37 H37            4.3871     1.4251    -3.7302 H       
  38 H38            5.1692     3.3296    -5.0810 H       
  39 H39            5.2222     5.5905    -4.1070 H       
  40 H40            4.4859     5.9482    -1.7847 H       
  41 H41            2.1023     1.5103     0.0026 H       
  42 H42           -1.0602     6.8347    -2.3531 H       
  43 H43           -2.2752     5.7870    -1.5822 H       
  44 H44           -3.4243     7.3629    -3.4813 H       
  45 H45           -5.0986     8.4784    -4.8186 H       
  46 H46           -6.9002    10.1868    -4.8797 H       
  47 H47           -7.3337    11.5354    -2.8371 H       
  48 H48           -5.9770    11.1453    -0.8226 H       
@<TRIPOS>BOND
   1    1    2 1
   2    2   18 ar
   3    2    3 ar
   4    3    4 ar
   5    3   32 1
   6    4    5 1
   7    4    6 ar
   8    6   17 ar
   9    6    7 1
  10    7    8 2
  11    7   19 1
  12    8    9 1
  13    8   33 1
  14    9   10 1
  15    9   17 1
  16   10   11 1
  17   10   34 1
  18   10   35 1
  19   11   16 ar
  20   11   12 ar
  21   12   13 ar
  22   12   36 1
  23   13   14 ar
  24   13   37 1
  25   14   15 ar
  26   14   38 1
  27   15   16 ar
  28   15   39 1
  29   16   40 1
  30   17   18 ar
  31   18   41 1
  32   19   20 2
  33   19   21 2
  34   19   22 1
  35   22   23 1
  36   22   42 1
  37   22   43 1
  38   23   24 2
  39   23   25 am
  40   25   26 1
  41   25   44 1
  42   26   31 ar
  43   26   27 ar
  44   27   28 ar
  45   27   45 1
  46   28   29 ar
  47   28   46 1
  48   29   30 ar
  49   29   47 1
  50   30   31 ar
  51   30   48 1

#	End of record

