#	Name: ASD01150185
#	Creating user name:	WinNT
#	Creation time:	15. 06. 2019 19:03

#	Modifying user name:	WinNT
#	Modification time:	15. 06. 2019 19:03

#	Program:	/corina/corina34_cracker 3.40 0067  02.08.2006

@<TRIPOS>MOLECULE
ASD01150185
  59   62    0    0    0
SMALL
NO_CHARGES


@<TRIPOS>ATOM
   1 N1            -0.0149     1.3813     0.0472 N.pl3   
   2 C2             0.0002    -0.0069     0.0253 C.2     
   3 C3            -1.3297    -0.4123    -0.0107 C.2     
   4 N4            -2.0856     0.6868    -0.0099 N.2     
   5 C5            -1.3206     1.7589     0.0294 C.2     
   6 C6             1.0147    -0.9804     0.0327 C.2     
   7 N7             0.6770    -2.2862     0.0047 N.am    
   8 C8            -0.6116    -2.6674    -0.0300 C.2     
   9 N9            -1.6137    -1.7683    -0.0382 N.am    
  10 O10            2.1868    -0.6481     0.0636 O.2     
  11 C11           -3.0055    -2.2239    -0.0759 C.3     
  12 O12           -0.8787    -3.8535    -0.0549 O.2     
  13 C13            1.7305    -3.3042     0.0117 C.3     
  14 C14            2.0606    -3.6756     1.4344 C.ar    
  15 C15            1.3804    -4.7068     2.0549 C.ar    
  16 C16            1.6828    -5.0479     3.3597 C.ar    
  17 C17            2.6664    -4.3571     4.0448 C.ar    
  18 C18            3.3468    -3.3252     3.4233 C.ar    
  19 C19            3.0475    -2.9887     2.1166 C.ar    
  20 N20           -1.7727     3.0584     0.0421 N.3     
  21 C21            1.1509     2.2676     0.0879 C.3     
  22 C22           -3.5218    -2.4047     1.3530 C.3     
  23 Cl23           3.0463    -4.7846     5.6839 Cl      
  24 C24           -4.9754    -2.8805     1.3137 C.3     
  25 C25           -2.5011     3.3742    -1.1933 C.3     
  26 C26           -2.8615     4.8615    -1.2085 C.3     
  27 C27           -3.7265     5.1846     0.0129 C.3     
  28 C28           -2.9640     4.8015     1.2843 C.3     
  29 C29           -2.6006     3.3160     1.2273 C.3     
  30 O30           -4.0188     6.5832     0.0346 O.3     
  31 C31           -5.2718     6.9058     0.6412 C.3     
  32 H32           -3.6164    -1.4833    -0.5920 H       
  33 H33           -3.0623    -3.1748    -0.6058 H       
  34 H34            1.3849    -4.1884    -0.5238 H       
  35 H35            2.6211    -2.9087    -0.4766 H       
  36 H36            0.6123    -5.2457     1.5201 H       
  37 H37            1.1510    -5.8533     3.8445 H       
  38 H38            4.1148    -2.7856     3.9576 H       
  39 H39            3.5786    -2.1832     1.6313 H       
  40 H40            1.5169     2.4334    -0.9253 H       
  41 H41            0.8667     3.2216     0.5322 H       
  42 H42            1.9364     1.8074     0.6873 H       
  43 H43           -2.9109    -3.1453     1.8691 H       
  44 H44           -3.4649    -1.4538     1.8829 H       
  45 H45           -5.5863    -2.1399     0.7976 H       
  46 H46           -5.0322    -3.8314     0.7838 H       
  47 H47           -5.3432    -3.0093     2.3316 H       
  48 H48           -1.8734     3.1438    -2.0540 H       
  49 H49           -3.4132     2.7791    -1.2394 H       
  50 H50           -1.9493     5.4573    -1.1764 H       
  51 H51           -3.4157     5.0923    -2.1183 H       
  52 H52           -4.6562     4.6180    -0.0389 H       
  53 H53           -2.0534     5.3964     1.3557 H       
  54 H54           -3.5914     4.9895     2.1555 H       
  55 H55           -3.5122     2.7211     1.1698 H       
  56 H56           -2.0451     3.0433     2.1246 H       
  57 H57           -6.0774     6.4173     0.0929 H       
  58 H58           -5.2745     6.5606     1.6751 H       
  59 H59           -5.4194     7.9855     0.6182 H       
@<TRIPOS>BOND
   1    1    2 1
   2    1   21 1
   3    1    5 1
   4    2    3 2
   5    2    6 1
   6    3    4 1
   7    3    9 1
   8    4    5 2
   9    5   20 1
  10    6    7 am
  11    6   10 2
  12    7    8 am
  13    7   13 1
  14    8    9 am
  15    8   12 2
  16    9   11 1
  17   11   22 1
  18   11   32 1
  19   11   33 1
  20   13   14 1
  21   13   34 1
  22   13   35 1
  23   14   15 ar
  24   14   19 ar
  25   15   16 ar
  26   15   36 1
  27   16   17 ar
  28   16   37 1
  29   17   18 ar
  30   17   23 1
  31   18   19 ar
  32   18   38 1
  33   19   39 1
  34   20   25 1
  35   20   29 1
  36   21   40 1
  37   21   41 1
  38   21   42 1
  39   22   24 1
  40   22   43 1
  41   22   44 1
  42   24   45 1
  43   24   46 1
  44   24   47 1
  45   25   26 1
  46   25   48 1
  47   25   49 1
  48   26   27 1
  49   26   50 1
  50   26   51 1
  51   27   28 1
  52   27   30 1
  53   27   52 1
  54   28   29 1
  55   28   53 1
  56   28   54 1
  57   29   55 1
  58   29   56 1
  59   30   31 1
  60   31   57 1
  61   31   58 1
  62   31   59 1

#	End of record

