#	Name: ASD01001030
#	Creating user name:	WinNT
#	Creation time:	15. 06. 2019 18:54

#	Modifying user name:	WinNT
#	Modification time:	15. 06. 2019 18:54

#	Program:	/corina/corina34_cracker 3.40 0067  02.08.2006

@<TRIPOS>MOLECULE
ASD01001030
  45   47    0    0    0
SMALL
NO_CHARGES


@<TRIPOS>ATOM
   1 C1            -0.0071     1.3354    -0.0540 C.ar    
   2 C2             0.0279    -0.0464    -0.0707 C.ar    
   3 C3             1.1722     2.0565    -0.0380 C.ar    
   4 C4             1.2421    -0.7071    -0.0715 C.ar    
   5 C5             2.3864     1.3958    -0.0388 C.ar    
   6 C6             2.4213     0.0140    -0.0560 C.ar    
   7 C7             3.6720     2.1819    -0.0223 C.3     
   8 C8             4.7072     1.4352     0.7788 C.ar    
   9 C9             4.1662     2.3662    -1.4340 C.ar    
  10 N10            3.4344     3.4964     0.5888 N.3     
  11 C11            6.0342     1.4657     0.3928 C.ar    
  12 C12            4.3306     0.7244     1.9030 C.ar    
  13 C13            3.8812     1.4151    -2.3958 C.ar    
  14 C14            4.8997     3.4892    -1.7685 C.ar    
  15 C15            2.9506     3.3558     1.9687 C.3     
  16 C16            6.9846     0.7854     1.1309 C.ar    
  17 C17            5.2801     0.0394     2.6379 C.ar    
  18 C18            4.3297     1.5869    -3.6920 C.ar    
  19 C19            5.3530     3.6582    -3.0634 C.ar    
  20 C20            2.7151     4.7426     2.5705 C.3     
  21 C21            6.6080     0.0750     2.2553 C.ar    
  22 C22            5.0628     2.7100    -4.0266 C.ar    
  23 N23            2.2313     4.6019     3.9504 N.3     
  24 H24            3.6499     5.3031     2.5686 H       
  25 H25           -0.9557     1.8517    -0.0579 H       
  26 H26           -0.8935    -0.6098    -0.0828 H       
  27 H27            1.1448     3.1361    -0.0252 H       
  28 H28            1.2694    -1.7867    -0.0839 H       
  29 H29            3.3700    -0.5022    -0.0559 H       
  30 H30            4.2656     4.0672     0.5535 H       
  31 H31            6.3283     2.0208    -0.4857 H       
  32 H32            3.2946     0.7045     2.2074 H       
  33 H33            3.3085     0.5375    -2.1344 H       
  34 H34            5.1182     4.2346    -1.0182 H       
  35 H35            2.0157     2.7953     1.9706 H       
  36 H36            3.6944     2.8238     2.5620 H       
  37 H37            8.0212     0.8087     0.8289 H       
  38 H38            4.9860    -0.5157     3.5164 H       
  39 H39            4.1077     0.8434    -4.4433 H       
  40 H40            5.9258     4.5357    -3.3248 H       
  41 H41            1.9713     5.2745     1.9772 H       
  42 H42            7.3505    -0.4568     2.8318 H       
  43 H43            5.4170     2.8421    -5.0383 H       
  44 H44            2.8738     4.0562     4.5049 H       
  45 H45            2.0681     5.5048     4.3702 H       
@<TRIPOS>BOND
   1    1    2 ar
   2    1    3 ar
   3    1   25 1
   4    2    4 ar
   5    2   26 1
   6    3    5 ar
   7    3   27 1
   8    4    6 ar
   9    4   28 1
  10    5    6 ar
  11    5    7 1
  12    6   29 1
  13    7   10 1
  14    7    8 1
  15    7    9 1
  16    8   12 ar
  17    8   11 ar
  18    9   14 ar
  19    9   13 ar
  20   10   15 1
  21   10   30 1
  22   11   16 ar
  23   11   31 1
  24   12   17 ar
  25   12   32 1
  26   13   18 ar
  27   13   33 1
  28   14   19 ar
  29   14   34 1
  30   15   20 1
  31   15   35 1
  32   15   36 1
  33   16   21 ar
  34   16   37 1
  35   17   21 ar
  36   17   38 1
  37   18   22 ar
  38   18   39 1
  39   19   22 ar
  40   19   40 1
  41   20   23 1
  42   20   24 1
  43   20   41 1
  44   21   42 1
  45   22   43 1
  46   23   44 1
  47   23   45 1

#	End of record

