#	Name: ASD02300004
#	Creating user name:	WinNT
#	Creation time:	15. 06. 2019 20:20

#	Modifying user name:	WinNT
#	Modification time:	15. 06. 2019 20:20

#	Program:	/corina/corina34_cracker 3.40 0067  02.08.2006

@<TRIPOS>MOLECULE
ASD02300004
  31   34    0    0    0
SMALL
NO_CHARGES


@<TRIPOS>ATOM
   1 C1            -0.0165     1.3624     0.0095 C.ar    
   2 C2             0.0021    -0.0041     0.0020 C.ar    
   3 C3             1.2057    -0.6995    -0.0132 C.ar    
   4 C4             2.3998    -0.0380    -0.0206 C.ar    
   5 C5             2.4161     1.3622    -0.0132 C.ar    
   6 C6             1.1883     2.0668     0.0018 C.ar    
   7 N7             3.5692     2.0522    -0.0205 N.2     
   8 C8             3.5864     3.3692    -0.0140 C.2     
   9 N9             2.4430     4.1280     0.0008 N.am    
  10 C10            1.2283     3.5325     0.0093 C.2     
  11 O11            0.2042     4.1906     0.0229 O.2     
  12 C12            4.8837     4.0754    -0.0225 C.2     
  13 C13            4.8556     5.4664    -0.0148 C.2     
  14 N14            3.6695     6.1110    -0.0002 N.2     
  15 C15            2.5323     5.4899     0.0072 C.2     
  16 C16            6.2327     3.5530    -0.0380 C.2     
  17 C17            7.1825     4.4724    -0.0420 C.2     
  18 S18            6.5012     6.0881    -0.0270 S.3     
  19 C19            8.6590     4.1712    -0.0567 C.3     
  20 C20            6.5318     2.0760    -0.0482 C.3     
  21 H21           -0.9568     1.8935     0.0169 H       
  22 H22           -0.9296    -0.5503     0.0083 H       
  23 H23            1.1959    -1.7794    -0.0189 H       
  24 H24            3.3270    -0.5916    -0.0317 H       
  25 H25            1.6221     6.0711     0.0185 H       
  26 H26            9.0058     4.1036    -1.0879 H       
  27 H27            9.1975     4.9681     0.4562 H       
  28 H28            8.8417     3.2241     0.4509 H       
  29 H29            6.5941     1.7250    -1.0782 H       
  30 H30            7.4811     1.8940     0.4557 H       
  31 H31            5.7366     1.5406     0.4706 H       
@<TRIPOS>BOND
   1    1    2 ar
   2    1    6 ar
   3    1   21 1
   4    2    3 ar
   5    2   22 1
   6    3    4 ar
   7    3   23 1
   8    4    5 ar
   9    4   24 1
  10    5    6 ar
  11    5    7 1
  12    6   10 1
  13    7    8 2
  14    8    9 1
  15    8   12 1
  16    9   10 am
  17    9   15 1
  18   10   11 2
  19   12   13 2
  20   12   16 1
  21   13   14 1
  22   13   18 1
  23   14   15 2
  24   15   25 1
  25   16   17 2
  26   16   20 1
  27   17   18 1
  28   17   19 1
  29   19   26 1
  30   19   27 1
  31   19   28 1
  32   20   29 1
  33   20   30 1
  34   20   31 1

#	End of record

