#	Name: ASD02448006
#	Creating user name:	WinNT
#	Creation time:	15. 06. 2019 20:21

#	Modifying user name:	WinNT
#	Modification time:	15. 06. 2019 20:21

#	Program:	/corina/corina34_cracker 3.40 0067  02.08.2006

@<TRIPOS>MOLECULE
ASD02448006
  81   86    0    0    0
SMALL
NO_CHARGES


@<TRIPOS>ATOM
   1 C1             3.3181    -7.4083    -1.0997 C.ar    
   2 C2             2.8027    -6.2967    -0.4639 C.ar    
   3 C3             2.1988    -5.2903    -1.2054 C.ar    
   4 C4             2.1125    -5.4016    -2.5865 C.ar    
   5 C5             2.6277    -6.5129    -3.2231 C.ar    
   6 C6             3.2324    -7.5198    -2.4816 C.ar    
   7 N7             3.7547    -8.6453    -3.1261 N.am    
   8 C8             4.8252    -9.5365    -2.6602 C.3     
   9 C9             5.0896   -10.6294    -3.6449 C.2     
  10 N10            4.3206   -10.5946    -4.7424 N.am    
  11 S11            3.2998    -9.2878    -4.5970 S.o2    
  12 O12            5.9342   -11.4810    -3.4652 O.2     
  13 O13            1.9822    -9.7994    -4.4498 O.2     
  14 O14            3.6786    -8.3471    -5.5923 O.2     
  15 N15            1.6748    -4.1603    -0.5585 N.pl3   
  16 C16            0.7437    -4.1584     0.4450 C.2     
  17 C17            2.0020    -2.8654    -0.8079 C.2     
  18 N18            1.3135    -2.0956    -0.0119 N.2     
  19 C19            0.5270    -2.8581     0.7745 C.2     
  20 C20           -0.4087    -2.3648     1.8147 C.ar    
  21 C21           -0.5335    -0.9959     2.0515 C.ar    
  22 C22           -1.1701    -3.2670     2.5545 C.ar    
  23 C23           -2.0393    -2.8033     3.5213 C.ar    
  24 C24           -2.1557    -1.4442     3.7568 C.ar    
  25 C25           -1.4060    -0.5425     3.0210 C.ar    
  26 Cl26          -3.2514    -0.8681     4.9739 Cl      
  27 Cl27           0.4066     0.1355     1.1296 Cl      
  28 C28            2.9983    -2.3956    -1.8363 C.3     
  29 C29            4.3370    -2.1821    -1.1780 C.ar    
  30 C30            5.2086    -3.2457    -1.0281 C.ar    
  31 C31            4.6920    -0.9222    -0.7310 C.ar    
  32 C32            5.9171    -0.7208    -0.1282 C.ar    
  33 C33            6.7968    -1.7897     0.0302 C.ar    
  34 C34            6.4358    -3.0558    -0.4258 C.ar    
  35 C35            8.1154    -1.5793     0.6776 C.ar    
  36 C36            8.4779    -0.3115     1.1293 C.ar    
  37 C37            8.9917    -2.6489     0.8407 C.ar    
  38 C38           10.2214    -2.4461     1.4459 C.ar    
  39 C39           10.5769    -1.1795     1.8881 C.ar    
  40 C40            9.7049    -0.1182     1.7311 C.ar    
  41 O41           11.0794    -3.4876     1.6069 O.3     
  42 C42           12.3299    -3.2063     2.2388 C.3     
  43 C43           13.1551    -4.4913     2.3311 C.3     
  44 C44           14.4939    -4.1901     3.0077 C.3     
  45 C45           14.2428    -3.6431     4.4143 C.3     
  46 C46           15.3192    -5.4751     3.1000 C.3     
  47 C47           15.2586    -3.1509     2.1853 C.3     
  48 H48            3.7918    -8.1891    -0.5232 H       
  49 H49            2.8689    -6.2101     0.6106 H       
  50 H50            1.6420    -4.6188    -3.1629 H       
  51 H51            2.5603    -6.5995    -4.2975 H       
  52 H52            5.7366    -8.9558    -2.5182 H       
  53 H53            4.5330    -9.9776    -1.7072 H       
  54 H54            4.3513   -11.2188    -5.4843 H       
  55 H55            0.2726    -5.0230     0.8889 H       
  56 H56           -1.0806    -4.3277     2.3717 H       
  57 H57           -2.6300    -3.5021     4.0948 H       
  58 H58           -1.5004     0.5169     3.2085 H       
  59 H59            3.0943    -3.1477    -2.6194 H       
  60 H60            2.6547    -1.4580    -2.2733 H       
  61 H61            4.9281    -4.2265    -1.3826 H       
  62 H62            4.0093    -0.0944    -0.8543 H       
  63 H63            6.1935     0.2635     0.2198 H       
  64 H64            7.1139    -3.8878    -0.3056 H       
  65 H65            7.7989     0.5196     1.0080 H       
  66 H66            8.7134    -3.6341     0.4968 H       
  67 H67           11.5357    -1.0233     2.3599 H       
  68 H68            9.9863     0.8656     2.0765 H       
  69 H69           12.8746    -2.4659     1.6529 H       
  70 H70           12.1510    -2.8166     3.2409 H       
  71 H71           12.6104    -5.2317     2.9170 H       
  72 H72           13.3340    -4.8810     1.3290 H       
  73 H73           13.6981    -4.3835     5.0002 H       
  74 H74           15.1966    -3.4285     4.8963 H       
  75 H75           13.6549    -2.7276     4.3486 H       
  76 H76           15.4981    -5.8648     2.0979 H       
  77 H77           16.2730    -5.2606     3.5820 H       
  78 H78           14.7745    -6.2155     3.6859 H       
  79 H79           14.6706    -2.2354     2.1196 H       
  80 H80           16.2124    -2.9363     2.6673 H       
  81 H81           15.4375    -3.5406     1.1832 H       
@<TRIPOS>BOND
   1    1    2 ar
   2    1    6 ar
   3    1   48 1
   4    2    3 ar
   5    2   49 1
   6    3    4 ar
   7    3   15 1
   8    4    5 ar
   9    4   50 1
  10    5    6 ar
  11    5   51 1
  12    6    7 1
  13    7    8 1
  14    7   11 am
  15    8    9 1
  16    8   52 1
  17    8   53 1
  18    9   10 am
  19    9   12 2
  20   10   11 am
  21   10   54 1
  22   11   13 2
  23   11   14 2
  24   15   16 1
  25   15   17 1
  26   16   19 2
  27   16   55 1
  28   17   18 2
  29   17   28 1
  30   18   19 1
  31   19   20 1
  32   20   21 ar
  33   20   22 ar
  34   21   27 1
  35   21   25 ar
  36   22   23 ar
  37   22   56 1
  38   23   24 ar
  39   23   57 1
  40   24   25 ar
  41   24   26 1
  42   25   58 1
  43   28   29 1
  44   28   59 1
  45   28   60 1
  46   29   30 ar
  47   29   31 ar
  48   30   34 ar
  49   30   61 1
  50   31   32 ar
  51   31   62 1
  52   32   33 ar
  53   32   63 1
  54   33   34 ar
  55   33   35 1
  56   34   64 1
  57   35   36 ar
  58   35   37 ar
  59   36   40 ar
  60   36   65 1
  61   37   38 ar
  62   37   66 1
  63   38   39 ar
  64   38   41 1
  65   39   40 ar
  66   39   67 1
  67   40   68 1
  68   41   42 1
  69   42   43 1
  70   42   69 1
  71   42   70 1
  72   43   44 1
  73   43   71 1
  74   43   72 1
  75   44   45 1
  76   44   46 1
  77   44   47 1
  78   45   73 1
  79   45   74 1
  80   45   75 1
  81   46   76 1
  82   46   77 1
  83   46   78 1
  84   47   79 1
  85   47   80 1
  86   47   81 1

#	End of record

