#	Name: ASD01209021
#	Creating user name:	WinNT
#	Creation time:	15. 06. 2019 19:10

#	Modifying user name:	WinNT
#	Modification time:	15. 06. 2019 19:10

#	Program:	/corina/corina34_cracker 3.40 0067  02.08.2006

@<TRIPOS>MOLECULE
ASD01209021
  57   61    0    0    0
SMALL
NO_CHARGES


@<TRIPOS>ATOM
   1 S1            -0.9328    -0.3914     0.8355 S.o2    
   2 C2            -3.6421    -0.9124    -5.5728 C.3     
   3 C3            -5.0129    -0.4843    -5.0450 C.3     
   4 C4            -4.8469     0.7117    -4.1054 C.3     
   5 C5            -6.2048     1.2289    -3.7059 C.2     
   6 O6            -6.5753     1.1340    -2.5550 O.2     
   7 N7            -4.1119     0.2944    -2.9089 N.pl3   
   8 C8            -2.9137     0.8120    -2.4910 C.ar    
   9 C9            -2.5683     0.1305    -1.3077 C.ar    
  10 C10           -3.6432    -0.8238    -1.0557 C.2     
  11 N11           -4.5234    -0.6919    -2.0066 N.2     
  12 N12           -7.0075     1.7970    -4.6276 N.am    
  13 C13           -2.0633     1.7973    -2.9858 C.ar    
  14 C14           -0.9062     2.0931    -2.3221 C.ar    
  15 C15           -0.5639     1.4221    -1.1548 C.ar    
  16 C16           -1.3786     0.4523    -0.6457 C.ar    
  17 C17           -8.2098     2.3849    -4.2374 C.ar    
  18 C18           -2.2111     0.0863     2.0307 C.3     
  19 C19           -2.0447    -0.3953     3.4734 C.3     
  20 C20           -1.8176     1.0777     3.1276 C.3     
  21 O21           -1.0501    -1.7681     0.5035 O.2     
  22 O22            0.3215     0.1712     1.1954 O.2     
  23 C23           -3.7862    -2.2024    -6.3861 C.3     
  24 C24           -2.4245    -2.5798    -6.9752 C.3     
  25 O25           -1.9397    -1.5024    -7.7792 O.3     
  26 C26           -1.7405    -0.2827    -7.0616 C.3     
  27 C27           -3.0747     0.1869    -6.4760 C.3     
  28 C28           -8.4306     2.6999    -2.8998 C.ar    
  29 N29           -9.5700     3.2568    -2.5343 N.ar    
  30 C30          -10.5007     3.5155    -3.4371 C.ar    
  31 C31          -10.2847     3.2035    -4.7666 C.ar    
  32 N32           -9.1439     2.6506    -5.1408 N.ar    
  33 H33           -2.9659    -1.0830    -4.7351 H       
  34 H34           -5.6527    -0.2032    -5.8815 H       
  35 H35           -5.4680    -1.3126    -4.5019 H       
  36 H36           -4.2934     1.5002    -4.6153 H       
  37 H37           -3.7008    -1.5131    -0.2263 H       
  38 H38           -6.7487     1.7967    -5.5624 H       
  39 H39           -2.3175     2.3262    -3.8925 H       
  40 H40           -0.2495     2.8578    -2.7098 H       
  41 H41            0.3551     1.6706    -0.6449 H       
  42 H42           -3.2248     0.1493     1.6350 H       
  43 H43           -2.9488    -0.6487     4.0269 H       
  44 H44           -1.1671    -0.9991     3.7044 H       
  45 H45           -0.7906     1.4430     3.1310 H       
  46 H46           -2.5724     1.7934     3.4535 H       
  47 H47           -4.1373    -3.0048    -5.7372 H       
  48 H48           -4.5016    -2.0461    -7.1934 H       
  49 H49           -1.7202    -2.7754    -6.1666 H       
  50 H50           -2.5295    -3.4735    -7.5902 H       
  51 H51           -1.0272    -0.4483    -6.2542 H       
  52 H52           -1.3528     0.4783    -7.7389 H       
  53 H53           -3.7758     0.3916    -7.2851 H       
  54 H54           -2.9170     1.0934    -5.8915 H       
  55 H55           -7.6709     2.4884    -2.1619 H       
  56 H56          -11.4321     3.9713    -3.1352 H       
  57 H57          -11.0476     3.4157    -5.5011 H       
@<TRIPOS>BOND
   1    1   21 2
   2    1   22 2
   3    1   16 1
   4    1   18 1
   5    2    3 1
   6    2   23 1
   7    2   27 1
   8    2   33 1
   9    3    4 1
  10    3   34 1
  11    3   35 1
  12    4    7 1
  13    4    5 1
  14    4   36 1
  15    5    6 2
  16    5   12 am
  17    7    8 1
  18    7   11 1
  19    8    9 ar
  20    8   13 ar
  21    9   10 1
  22    9   16 ar
  23   10   11 2
  24   10   37 1
  25   12   17 1
  26   12   38 1
  27   13   14 ar
  28   13   39 1
  29   14   15 ar
  30   14   40 1
  31   15   16 ar
  32   15   41 1
  33   17   28 ar
  34   17   32 ar
  35   18   19 1
  36   18   20 1
  37   18   42 1
  38   19   20 1
  39   19   43 1
  40   19   44 1
  41   20   45 1
  42   20   46 1
  43   23   24 1
  44   23   47 1
  45   23   48 1
  46   24   25 1
  47   24   49 1
  48   24   50 1
  49   25   26 1
  50   26   27 1
  51   26   51 1
  52   26   52 1
  53   27   53 1
  54   27   54 1
  55   28   29 ar
  56   28   55 1
  57   29   30 ar
  58   30   31 ar
  59   30   56 1
  60   31   32 ar
  61   31   57 1

#	End of record

