#	Name: ASD01882859
#	Creating user name:	WinNT
#	Creation time:	15. 06. 2019 19:45

#	Modifying user name:	WinNT
#	Modification time:	15. 06. 2019 19:45

#	Program:	/corina/corina34_cracker 3.40 0067  02.08.2006

@<TRIPOS>MOLECULE
ASD01882859
  27   29    0    0    0
SMALL
NO_CHARGES


@<TRIPOS>ATOM
   1 C1            -0.0168     1.3846     0.0097 C.ar    
   2 C2             0.0021    -0.0041     0.0020 C.ar    
   3 C3             1.1837    -0.6857    -0.0125 C.ar    
   4 C4             2.3958     0.0165    -0.0202 C.ar    
   5 C5             2.3758     1.4222    -0.0130 C.ar    
   6 C6             1.1607     2.0983     0.0022 C.ar    
   7 N7             3.6861    -0.3740    -0.0342 N.2     
   8 N8             4.4632     0.6512    -0.0363 N.2     
   9 N9             3.6910     1.8223    -0.0232 N.pl3   
  10 C10            4.1882     3.2003    -0.0213 C.3     
  11 C11            4.3480     3.6868    -1.4631 C.3     
  12 C12            4.7473     5.1484    -1.6753 C.3     
  13 C13            5.7602     4.0326    -1.9396 C.3     
  14 C14            1.1851    -2.1926    -0.0196 C.3     
  15 F15           -0.1335    -2.6602    -0.0092 F       
  16 F16            1.8341    -2.6530    -1.1703 F       
  17 F17            1.8558    -2.6637     1.1142 F       
  18 H18           -0.9613     1.9082     0.0170 H       
  19 H19           -0.9294    -0.5506     0.0080 H       
  20 H20            1.1407     3.1781     0.0075 H       
  21 H21            3.4792     3.8417     0.5021 H       
  22 H22            5.1534     3.2376     0.4838 H       
  23 H23            3.6670     3.2408    -2.1880 H       
  24 H24            4.3293     5.6639    -2.5400 H       
  25 H25            4.8962     5.7634    -0.7878 H       
  26 H26            6.5754     3.9135    -1.2259 H       
  27 H27            6.0086     3.8139    -2.9782 H       
@<TRIPOS>BOND
   1    1    2 ar
   2    1    6 ar
   3    1   18 1
   4    2    3 ar
   5    2   19 1
   6    3   14 1
   7    3    4 ar
   8    4    5 ar
   9    4    7 1
  10    5    6 ar
  11    5    9 1
  12    6   20 1
  13    7    8 2
  14    8    9 1
  15    9   10 1
  16   10   11 1
  17   10   21 1
  18   10   22 1
  19   11   12 1
  20   11   13 1
  21   11   23 1
  22   12   13 1
  23   12   24 1
  24   12   25 1
  25   13   26 1
  26   13   27 1
  27   14   15 1
  28   14   16 1
  29   14   17 1

#	End of record

