#	Name: ASD01884481
#	Creating user name:	WinNT
#	Creation time:	15. 06. 2019 19:48

#	Modifying user name:	WinNT
#	Modification time:	15. 06. 2019 19:48

#	Program:	/corina/corina34_cracker 3.40 0067  02.08.2006

@<TRIPOS>MOLECULE
ASD01884481
  42   44    0    0    0
SMALL
NO_CHARGES


@<TRIPOS>ATOM
   1 C1            -0.0164     1.3576     0.0095 C.2     
   2 C2             0.0021    -0.0041     0.0020 C.2     
   3 C3             1.2440    -0.6751    -0.0134 C.2     
   4 C4             2.4025     0.0465    -0.0206 C.2     
   5 N5             2.3700     1.4025    -0.0126 N.am    
   6 C6             1.1986     2.0652     0.0017 C.2     
   7 C7             1.2897    -2.1582    -0.0214 C.ar    
   8 C8             3.6265     2.1557    -0.0201 C.3     
   9 O9             1.1909     3.2857     0.0092 O.2     
  10 C10            4.0441     2.4221    -1.4434 C.ar    
  11 C11            3.6200     3.5712    -2.0843 C.ar    
  12 C12            4.0026     3.8160    -3.3896 C.ar    
  13 C13            4.8102     2.9108    -4.0549 C.ar    
  14 C14            5.2343     1.7610    -3.4129 C.ar    
  15 C15            4.8557     1.5200    -2.1056 C.ar    
  16 C16            0.8122    -2.8770     1.0734 C.ar    
  17 C17            1.8050    -2.8347    -1.1260 C.ar    
  18 C18            1.8463    -4.2126    -1.1317 C.ar    
  19 C19            1.3738    -4.9278    -0.0367 C.ar    
  20 C20            0.8550    -4.2549     1.0641 C.ar    
  21 Cl21           5.2907     3.2174    -5.6946 Cl      
  22 S22            1.4265    -6.6890    -0.0469 S.3     
  23 C23            0.7151    -7.1278     1.5631 C.3     
  24 C24            0.6900    -8.6503     1.7117 C.3     
  25 H25           -0.9563     1.8894     0.0169 H       
  26 H26           -0.9217    -0.5635     0.0082 H       
  27 H27            3.3529    -0.4664    -0.0325 H       
  28 H28            3.4855     3.1029     0.5005 H       
  29 H29            4.4005     1.5763     0.4832 H       
  30 H30            2.9893     4.2776    -1.5650 H       
  31 H31            3.6709     4.7136    -3.8904 H       
  32 H32            5.8648     1.0540    -3.9317 H       
  33 H33            5.1867     0.6225    -1.6044 H       
  34 H34            0.4092    -2.3547     1.9285 H       
  35 H35            2.1714    -2.2796    -1.9769 H       
  36 H36            2.2454    -4.7370    -1.9873 H       
  37 H37            0.4886    -4.8120     1.9136 H       
  38 H38            1.3219    -6.6951     2.3585 H       
  39 H39           -0.3012    -6.7394     1.6293 H       
  40 H40            0.0832    -9.0830     0.9163 H       
  41 H41            1.7063    -9.0387     1.6455 H       
  42 H42            0.2626    -8.9140     2.6791 H       
@<TRIPOS>BOND
   1    1    2 2
   2    1    6 1
   3    1   25 1
   4    2    3 1
   5    2   26 1
   6    3    4 2
   7    3    7 1
   8    4    5 1
   9    4   27 1
  10    5    6 am
  11    5    8 1
  12    6    9 2
  13    7   16 ar
  14    7   17 ar
  15    8   10 1
  16    8   28 1
  17    8   29 1
  18   10   11 ar
  19   10   15 ar
  20   11   12 ar
  21   11   30 1
  22   12   13 ar
  23   12   31 1
  24   13   14 ar
  25   13   21 1
  26   14   15 ar
  27   14   32 1
  28   15   33 1
  29   16   20 ar
  30   16   34 1
  31   17   18 ar
  32   17   35 1
  33   18   19 ar
  34   18   36 1
  35   19   20 ar
  36   19   22 1
  37   20   37 1
  38   22   23 1
  39   23   24 1
  40   23   38 1
  41   23   39 1
  42   24   40 1
  43   24   41 1
  44   24   42 1

#	End of record

