#	Name: ASD00845322
#	Creating user name:	WinNT
#	Creation time:	15. 06. 2019 18:52

#	Modifying user name:	WinNT
#	Modification time:	15. 06. 2019 18:52

#	Program:	/corina/corina34_cracker 3.40 0067  02.08.2006

@<TRIPOS>MOLECULE
ASD00845322
  90   95    0    0    0
SMALL
NO_CHARGES


@<TRIPOS>ATOM
   1 F1            -0.0762    -3.1158     4.7249 F       
   2 C2            -0.0167     1.3829     0.0096 C.ar    
   3 C3             0.0021    -0.0041     0.0020 C.ar    
   4 C4             1.2143    -0.6791    -0.0132 C.ar    
   5 C5             2.3989     0.0312    -0.0207 C.ar    
   6 C6             2.3774     1.4139    -0.0126 C.ar    
   7 C7             1.1710     2.0888     0.0021 C.ar    
   8 C8             1.2384    -2.1858    -0.0210 C.3     
   9 C9             0.4954    -2.7217    -1.2260 C.2     
  10 O10            2.6067    -2.6714    -0.0100 O.3     
  11 C11            3.3978    -2.2930    -1.0317 C.2     
  12 N12            4.6788    -2.7088    -1.0818 N.am    
  13 O13            2.9568    -1.5767    -1.9085 O.2     
  14 C14            5.5543    -2.3043    -2.1903 C.3     
  15 C15            6.1658    -3.5603    -2.8192 C.3     
  16 C16            6.8652    -4.3809    -1.7331 C.3     
  17 C17            5.8417    -4.8164    -0.6819 C.3     
  18 C18            5.2282    -3.5702    -0.0259 C.3     
  19 N19            7.4812    -5.5694    -2.3382 N.3     
  20 C20            8.2628    -6.3204    -1.3459 C.3     
  21 C21            8.8209    -7.5895    -1.9944 C.3     
  22 N22            9.6539    -7.2214    -3.1477 N.3     
  23 C23            8.8723    -6.4703    -4.1400 C.3     
  24 C24            8.3143    -5.2013    -3.4915 C.3     
  25 C25           10.2700    -8.4098    -3.7528 C.3     
  26 O26            0.7745    -2.5251    -2.3899 O.2     
  27 N27           -0.5308    -3.4561    -0.7651 N.am    
  28 C28            0.4695    -2.7339     1.1599 C.ar    
  29 C29           -0.5756    -3.4845     0.6309 C.ar    
  30 C30            0.6376    -2.6093     2.5214 C.ar    
  31 C31           -0.2397    -3.2360     3.3892 C.ar    
  32 C32           -1.2963    -3.9947     2.8754 C.ar    
  33 C33           -1.4606    -4.1171     1.4959 C.ar    
  34 C34           -0.9792    -5.8526    -2.0419 C.ar    
  35 C35            0.2000    -6.0106    -2.7551 C.ar    
  36 C36           -1.6498    -6.9619    -1.5637 C.ar    
  37 C37           -1.1464    -8.2284    -1.7951 C.ar    
  38 C38            0.0290    -8.3886    -2.5058 C.ar    
  39 C39            0.7030    -7.2829    -2.9864 C.ar    
  40 H40            0.4203    -9.3791    -2.6853 H       
  41 O41            0.8613    -4.9211    -3.2269 O.3     
  42 C42            2.0690    -5.1592    -3.9527 C.3     
  43 C43            2.6666    -3.8238    -4.4005 C.3     
  44 S44           -1.6174    -4.2383    -1.7397 S.o2    
  45 O45           -2.7973    -4.4114    -0.9671 O.2     
  46 O46           -1.5983    -3.5592    -2.9878 O.2     
  47 O47           -1.1648    -0.7006     0.0099 O.3     
  48 C48           -2.3744     0.0601     0.0260 C.3     
  49 C49           -3.5740    -0.8895     0.0328 C.3     
  50 F50           -3.5417    -1.6899    -1.1142 F       
  51 F51           -3.5190    -1.7022     1.1702 F       
  52 C52           -2.2089    -4.6466     3.7658 C.1     
  53 N53           -2.9329    -5.1638     4.4721 N.1     
  54 H54           -0.9590     1.9106     0.0170 H       
  55 H55            3.3426    -0.4937    -0.0325 H       
  56 H56            3.3047     1.9675    -0.0178 H       
  57 H57            1.1569     3.1687     0.0084 H       
  58 H58            4.9717    -1.7675    -2.9389 H       
  59 H59            6.3489    -1.6610    -1.8123 H       
  60 H60            5.3778    -4.1586    -3.2765 H       
  61 H61            6.8909    -3.2702    -3.5796 H       
  62 H62            7.6365    -3.7737    -1.2593 H       
  63 H63            5.0568    -5.4030    -1.1594 H       
  64 H64            6.3362    -5.4205     0.0789 H       
  65 H65            5.9977    -3.0326     0.5282 H       
  66 H66            4.4290    -3.8700     0.6520 H       
  67 H67            9.0864    -5.7024    -0.9883 H       
  68 H68            7.6212    -6.5923    -0.5078 H       
  69 H69            9.4249    -8.1335    -1.2683 H       
  70 H70            7.9967    -8.2202    -2.3277 H       
  71 H71            9.5140    -6.1984    -4.9782 H       
  72 H72            8.0487    -7.0883    -4.4976 H       
  73 H73            7.7102    -4.6573    -4.2176 H       
  74 H74            9.1385    -4.5706    -3.1583 H       
  75 H75            9.4894    -9.0923    -4.0891 H       
  76 H76           10.8809    -8.1089    -4.6039 H       
  77 H77           10.8966    -8.9100    -3.0145 H       
  78 H78            1.4553    -2.0220     2.9122 H       
  79 H79           -2.2766    -4.7032     1.0995 H       
  80 H80           -2.5680    -6.8394    -1.0083 H       
  81 H81           -1.6717    -9.0942    -1.4198 H       
  82 H82            1.6205    -7.4085    -3.5421 H       
  83 H83            2.7812    -5.6795    -3.3123 H       
  84 H84            1.8522    -5.7719    -4.8278 H       
  85 H85            1.9544    -3.3035    -5.0409 H       
  86 H86            2.8834    -3.2111    -3.5254 H       
  87 H87            3.5878    -4.0054    -4.9541 H       
  88 H88           -2.3995     0.6837     0.9196 H       
  89 H89           -2.4172     0.6932    -0.8603 H       
  90 H90           -4.4966    -0.3093     0.0451 H       
@<TRIPOS>BOND
   1    1   31 1
   2    2    3 ar
   3    2    7 ar
   4    2   54 1
   5    3    4 ar
   6    3   47 1
   7    4    5 ar
   8    4    8 1
   9    5    6 ar
  10    5   55 1
  11    6    7 ar
  12    6   56 1
  13    7   57 1
  14    8    9 1
  15    8   10 1
  16    8   28 1
  17    9   26 2
  18    9   27 am
  19   10   11 1
  20   11   12 am
  21   11   13 2
  22   12   14 1
  23   12   18 1
  24   14   15 1
  25   14   58 1
  26   14   59 1
  27   15   16 1
  28   15   60 1
  29   15   61 1
  30   16   17 1
  31   16   19 1
  32   16   62 1
  33   17   18 1
  34   17   63 1
  35   17   64 1
  36   18   65 1
  37   18   66 1
  38   19   20 1
  39   19   24 1
  40   20   21 1
  41   20   67 1
  42   20   68 1
  43   21   22 1
  44   21   69 1
  45   21   70 1
  46   22   23 1
  47   22   25 1
  48   23   24 1
  49   23   71 1
  50   23   72 1
  51   24   73 1
  52   24   74 1
  53   25   75 1
  54   25   76 1
  55   25   77 1
  56   27   44 am
  57   27   29 1
  58   28   29 ar
  59   28   30 ar
  60   29   33 ar
  61   30   31 ar
  62   30   78 1
  63   31   32 ar
  64   32   33 ar
  65   32   52 1
  66   33   79 1
  67   34   35 ar
  68   34   36 ar
  69   34   44 1
  70   35   41 1
  71   35   39 ar
  72   36   37 ar
  73   36   80 1
  74   37   38 ar
  75   37   81 1
  76   38   39 ar
  77   38   40 1
  78   39   82 1
  79   41   42 1
  80   42   43 1
  81   42   83 1
  82   42   84 1
  83   43   85 1
  84   43   86 1
  85   43   87 1
  86   44   45 2
  87   44   46 2
  88   47   48 1
  89   48   49 1
  90   48   88 1
  91   48   89 1
  92   49   50 1
  93   49   51 1
  94   49   90 1
  95   52   53 3

#	End of record

