#	Name: ASD01910153
#	Creating user name:	WinNT
#	Creation time:	15. 06. 2019 19:55

#	Modifying user name:	WinNT
#	Modification time:	15. 06. 2019 19:55

#	Program:	/corina/corina34_cracker 3.40 0067  02.08.2006

@<TRIPOS>MOLECULE
ASD01910153
  44   46    0    0    0
SMALL
NO_CHARGES


@<TRIPOS>ATOM
   1 C1             0.0492     1.2911     0.1372 C.ar    
   2 C2            -1.0357     1.7123    -0.6141 C.ar    
   3 C3            -0.9406     2.8474    -1.4022 C.ar    
   4 C4             0.2362     3.5649    -1.4436 C.ar    
   5 C5             1.3332     3.1453    -0.6885 C.ar    
   6 C6             1.2311     2.0006     0.1045 C.ar    
   7 C7             2.5972     3.9094    -0.7288 C.2     
   8 N8             3.6544     3.5021     0.0011 N.am    
   9 C9             4.8789     4.1684    -0.1095 C.ar    
  10 C10            4.9072     5.5426    -0.2988 C.ar    
  11 C11            6.1244     6.2001    -0.4082 C.ar    
  12 C12            7.3103     5.4809    -0.3279 C.ar    
  13 C13            7.2787     4.1123    -0.1397 C.ar    
  14 C14            6.0689     3.4557    -0.0243 C.ar    
  15 N15            6.1573     7.5850    -0.5995 N.am    
  16 C16            7.1325     8.3210    -0.0304 C.2     
  17 C17            7.1101     9.7913    -0.1468 C.ar    
  18 C18            6.0801    10.4250    -0.8459 C.ar    
  19 C19            6.0648    11.7992    -0.9506 C.ar    
  20 C20            7.0668    12.5559    -0.3659 C.ar    
  21 C21            8.0912    11.9422     0.3278 C.ar    
  22 C22            8.1192    10.5611     0.4485 C.ar    
  23 O23            9.1247     9.9569     1.1298 O.3     
  24 C24           10.1240    10.8051     1.6990 C.3     
  25 O25            2.6835     4.9056    -1.4203 O.2     
  26 O26            8.0307     7.7730     0.5790 O.2     
  27 Cl27          -2.5202     0.8136    -0.5681 Cl      
  28 H28           -0.0323     0.4079     0.7533 H       
  29 H29           -1.7898     3.1709    -1.9858 H       
  30 H30            0.3093     4.4493    -2.0590 H       
  31 H31            2.0762     1.6715     0.6909 H       
  32 H32            3.5660     2.7467     0.6032 H       
  33 H33            3.9839     6.0993    -0.3612 H       
  34 H34            8.2579     5.9919    -0.4129 H       
  35 H35            8.2020     3.5554    -0.0784 H       
  36 H36            6.0476     2.3860     0.1230 H       
  37 H37            5.4782     8.0160    -1.1417 H       
  38 H38            5.2971     9.8390    -1.3040 H       
  39 H39            5.2680    12.2883    -1.4913 H       
  40 H40            7.0470    13.6321    -0.4532 H       
  41 H41            8.8693    12.5390     0.7803 H       
  42 H42           10.6087    11.3771     0.9078 H       
  43 H43            9.6587    11.4890     2.4089 H       
  44 H44           10.8667    10.1963     2.2145 H       
@<TRIPOS>BOND
   1    1    2 ar
   2    1    6 ar
   3    1   28 1
   4    2    3 ar
   5    2   27 1
   6    3    4 ar
   7    3   29 1
   8    4    5 ar
   9    4   30 1
  10    5    6 ar
  11    5    7 1
  12    6   31 1
  13    7    8 am
  14    7   25 2
  15    8    9 1
  16    8   32 1
  17    9   10 ar
  18    9   14 ar
  19   10   11 ar
  20   10   33 1
  21   11   12 ar
  22   11   15 1
  23   12   13 ar
  24   12   34 1
  25   13   14 ar
  26   13   35 1
  27   14   36 1
  28   15   16 am
  29   15   37 1
  30   16   17 1
  31   16   26 2
  32   17   18 ar
  33   17   22 ar
  34   18   19 ar
  35   18   38 1
  36   19   20 ar
  37   19   39 1
  38   20   21 ar
  39   20   40 1
  40   21   22 ar
  41   21   41 1
  42   22   23 1
  43   23   24 1
  44   24   42 1
  45   24   43 1
  46   24   44 1

#	End of record

