#	Name: ASD02039451
#	Creating user name:	WinNT
#	Creation time:	15. 06. 2019 20:18

#	Modifying user name:	WinNT
#	Modification time:	15. 06. 2019 20:18

#	Program:	/corina/corina34_cracker 3.40 0067  02.08.2006

@<TRIPOS>MOLECULE
ASD02039451
  48   51    0    0    0
SMALL
NO_CHARGES


@<TRIPOS>ATOM
   1 C1             0.1499     1.1862     0.0762 C.ar    
   2 C2             0.4316    -0.1672     0.1948 C.ar    
   3 C3             1.2614     2.2020     0.0151 C.3     
   4 N4             1.7337     2.3266    -1.3661 N.am    
   5 C5             1.2464     3.3008    -2.1597 C.2     
   6 C6             0.1674     4.1773    -1.6720 C.2     
   7 C7            -0.4870     5.1302    -2.3965 C.2     
   8 N8            -0.3609     4.1800    -0.4214 N.2     
   9 C9            -1.2923     5.0873    -0.3598 C.2     
  10 N10           -1.3968     5.6967    -1.5694 N.pl3   
  11 O11            1.6975     3.4564    -3.2784 O.2     
  12 C12           -2.3267     6.7743    -1.9164 C.3     
  13 C13            2.7358     1.3921    -1.8846 C.3     
  14 C14           -0.6104    -1.0747     0.2484 C.ar    
  15 C15           -2.1745     0.6131     0.0634 C.ar    
  16 C16           -1.1749     1.5821     0.0094 C.ar    
  17 C17           -3.5986     1.0208    -0.0075 C.ar    
  18 C18           -4.6061     0.0574     0.0458 C.ar    
  19 C19           -5.9340     0.4457    -0.0209 C.ar    
  20 C20           -6.2591     1.7860    -0.1401 C.ar    
  21 C21           -5.2615     2.7432    -0.1936 C.ar    
  22 C22           -3.9356     2.3686    -0.1218 C.ar    
  23 N23           -1.8629    -0.6708     0.1880 N.ar    
  24 C24            2.3153     0.7013    -3.1926 C.3     
  25 C25            3.7687     0.8800    -3.6622 C.3     
  26 C26            3.8517     2.0725    -2.6948 C.3     
  27 F27           -4.2876    -1.2504     0.1617 F       
  28 F28           -6.9126    -0.4843     0.0299 F       
  29 H29            1.4550    -0.5087     0.2445 H       
  30 H30            0.8911     3.1671     0.3608 H       
  31 H31            2.0843     1.8790     0.6527 H       
  32 H32           -0.3125     5.3841    -3.4316 H       
  33 H33           -1.8879     5.3164     0.5114 H       
  34 H34           -1.8592     7.7375    -1.7117 H       
  35 H35           -2.5784     6.7103    -2.9750 H       
  36 H36           -3.2342     6.6770    -1.3206 H       
  37 H37            3.1041     0.7022    -1.1254 H       
  38 H38           -0.3945    -2.1288     0.3408 H       
  39 H39           -1.4298     2.6267    -0.0920 H       
  40 H40           -7.2954     2.0856    -0.1919 H       
  41 H41           -5.5217     3.7873    -0.2870 H       
  42 H42           -3.1592     3.1182    -0.1635 H       
  43 H43            2.0237    -0.3408    -3.0619 H       
  44 H44            1.5943     1.2735    -3.7765 H       
  45 H45            4.4208     0.0503    -3.3894 H       
  46 H46            3.8571     1.1619    -4.7114 H       
  47 H47            3.5508     3.0197    -3.1425 H       
  48 H48            4.8005     2.1375    -2.1622 H       
@<TRIPOS>BOND
   1    1    2 ar
   2    1    3 1
   3    1   16 ar
   4    2   14 ar
   5    2   29 1
   6    3    4 1
   7    3   30 1
   8    3   31 1
   9    4    5 am
  10    4   13 1
  11    5    6 1
  12    5   11 2
  13    6    7 2
  14    6    8 1
  15    7   10 1
  16    7   32 1
  17    8    9 2
  18    9   10 1
  19    9   33 1
  20   10   12 1
  21   12   34 1
  22   12   35 1
  23   12   36 1
  24   13   24 1
  25   13   26 1
  26   13   37 1
  27   14   23 ar
  28   14   38 1
  29   15   16 ar
  30   15   17 1
  31   15   23 ar
  32   16   39 1
  33   17   18 ar
  34   17   22 ar
  35   18   19 ar
  36   18   27 1
  37   19   20 ar
  38   19   28 1
  39   20   21 ar
  40   20   40 1
  41   21   22 ar
  42   21   41 1
  43   22   42 1
  44   24   25 1
  45   24   43 1
  46   24   44 1
  47   25   26 1
  48   25   45 1
  49   25   46 1
  50   26   47 1
  51   26   48 1

#	End of record

