#	Name: ASD01810145
#	Creating user name:	WinNT
#	Creation time:	15. 06. 2019 19:23

#	Modifying user name:	WinNT
#	Modification time:	15. 06. 2019 19:23

#	Program:	/corina/corina34_cracker 3.40 0067  02.08.2006

@<TRIPOS>MOLECULE
ASD01810145
  34   36    0    0    0
SMALL
NO_CHARGES


@<TRIPOS>ATOM
   1 C1             0.2407     1.5802     0.5603 C.ar    
   2 C2             0.1797     0.1942     0.5552 C.ar    
   3 C3             1.3155    -0.5598     0.3555 C.ar    
   4 C4             2.5416     0.0690     0.1560 C.ar    
   5 C5             2.6008     1.4731     0.1616 C.ar    
   6 C6             1.4431     2.2235     0.3649 C.ar    
   7 N7             3.6849    -0.6740    -0.0443 N.pl3   
   8 C8             4.8871    -0.1175    -0.2401 C.2     
   9 C9             5.0708     1.2504    -0.2554 C.2     
  10 C10            3.9059     2.1265    -0.0509 C.2     
  11 O11            4.0152     3.3401    -0.0559 O.2     
  12 C12            6.4071     1.8226    -0.4727 C.2     
  13 O13            6.5736     3.1602    -0.4854 O.3     
  14 O14            7.3622     1.0895    -0.6409 O.2     
  15 C15            3.5807    -2.1353    -0.0424 C.3     
  16 C16            3.7107    -2.6464     1.3693 C.ar    
  17 C17            2.5880    -3.0602     2.0604 C.ar    
  18 C18            2.7064    -3.5292     3.3555 C.ar    
  19 C19            3.9487    -3.5848     3.9609 C.ar    
  20 C20            5.0736    -3.1710     3.2708 C.ar    
  21 C21            4.9560    -2.7067     1.9720 C.ar    
  22 F22            6.0541    -2.3026     1.2967 F       
  23 Br23           4.1092    -4.2259     5.7327 Br      
  24 H24           -0.6591     2.1575     0.7137 H       
  25 H25           -0.7685    -0.2992     0.7098 H       
  26 H26            1.2548    -1.6381     0.3541 H       
  27 H27            1.4889     3.3025     0.3689 H       
  28 H28            5.7416    -0.7606    -0.3908 H       
  29 H29            7.4710     3.4895    -0.6320 H       
  30 H30            2.6133    -2.4311    -0.4483 H       
  31 H31            4.3766    -2.5571    -0.6563 H       
  32 H32            1.6174    -3.0170     1.5887 H       
  33 H33            1.8282    -3.8521     3.8949 H       
  34 H34            6.0437    -3.2135     3.7436 H       
@<TRIPOS>BOND
   1    1    2 ar
   2    1    6 ar
   3    1   24 1
   4    2    3 ar
   5    2   25 1
   6    3    4 ar
   7    3   26 1
   8    4    5 ar
   9    4    7 1
  10    5    6 ar
  11    5   10 1
  12    6   27 1
  13    7    8 1
  14    7   15 1
  15    8    9 2
  16    8   28 1
  17    9   10 1
  18    9   12 1
  19   10   11 2
  20   12   13 1
  21   12   14 2
  22   13   29 1
  23   15   16 1
  24   15   30 1
  25   15   31 1
  26   16   17 ar
  27   16   21 ar
  28   17   18 ar
  29   17   32 1
  30   18   19 ar
  31   18   33 1
  32   19   20 ar
  33   19   23 1
  34   20   21 ar
  35   20   34 1
  36   21   22 1

#	End of record

