#	Name: ASD03740034
#	Creating user name:	WinNT
#	Creation time:	15. 06. 2019 20:46

#	Modifying user name:	WinNT
#	Modification time:	15. 06. 2019 20:46

#	Program:	/corina/corina34_cracker 3.40 0067  02.08.2006

@<TRIPOS>MOLECULE
ASD03740034
  17   18    0    0    0
SMALL
NO_CHARGES


@<TRIPOS>ATOM
   1 C1            -0.0168     1.3846     0.0097 C.ar    
   2 C2             0.0021    -0.0041     0.0020 C.ar    
   3 C3             1.2027    -0.6896    -0.0127 C.ar    
   4 C4             2.4052     0.0237    -0.0204 C.ar    
   5 C5             2.3782     1.4295    -0.0131 C.ar    
   6 C6             1.1458     2.0981     0.0024 C.ar    
   7 N7             3.7274    -0.3436    -0.0347 N.pl3   
   8 N8             4.5021     0.8228    -0.0361 N.2     
   9 C9             3.7249     1.8667    -0.0235 C.2     
  10 N10            1.2143    -2.0873    -0.0194 N.pl3   
  11 H11           -0.9628     1.9056     0.0170 H       
  12 H12           -0.9282    -0.5527     0.0080 H       
  13 H13            1.1170     3.1777     0.0081 H       
  14 H14            4.0661    -1.2525    -0.0420 H       
  15 H15            4.0527     2.8957    -0.0222 H       
  16 H16            0.3784    -2.5792    -0.0137 H       
  17 H17            2.0583    -2.5652    -0.0297 H       
@<TRIPOS>BOND
   1    1    2 ar
   2    1    6 ar
   3    1   11 1
   4    2    3 ar
   5    2   12 1
   6    3    4 ar
   7    3   10 1
   8    4    5 ar
   9    4    7 1
  10    5    6 ar
  11    5    9 1
  12    6   13 1
  13    7    8 1
  14    7   14 1
  15    8    9 2
  16    9   15 1
  17   10   16 1
  18   10   17 1

#	End of record

