#	Name: ASD01900938
#	Creating user name:	WinNT
#	Creation time:	15. 06. 2019 19:52

#	Modifying user name:	WinNT
#	Modification time:	15. 06. 2019 19:52

#	Program:	/corina/corina34_cracker 3.40 0067  02.08.2006

@<TRIPOS>MOLECULE
ASD01900938
  40   42    0    0    0
SMALL
NO_CHARGES


@<TRIPOS>ATOM
   1 C1            -0.0168     1.3892     0.0097 C.ar    
   2 C2             0.0021    -0.0041     0.0020 C.ar    
   3 C3             1.2224    -0.6605    -0.0132 C.ar    
   4 C4             2.3820     0.0992    -0.0202 C.ar    
   5 C5             2.2885     1.4816    -0.0119 C.ar    
   6 N6             1.1170     2.0793     0.0026 N.ar    
   7 C7            -1.3129     2.1060     0.0197 C.2     
   8 O8            -2.3540     1.4792     0.0212 O.2     
   9 N9            -1.3376     3.4535     0.0271 N.am    
  10 S10           -2.7314     5.8260     0.0466 S.3     
  11 C11           -2.5528     4.1257     0.0365 C.2     
  12 N12           -3.7170     3.5552     0.0382 N.2     
  13 C13           -4.7714     4.3490     0.0469 C.2     
  14 C14           -4.4846     5.6524     0.0529 C.2     
  15 C15           -6.1847     3.8260     0.0493 C.3     
  16 F16           -6.1656     2.4312     0.1567 F       
  17 F17           -6.8806     4.3678     1.1353 F       
  18 F18           -6.8200     4.1934    -1.1417 F       
  19 S19           -5.6549     6.9695     0.0649 S.o2    
  20 O20           -4.9657     8.0562    -0.5377 O.2     
  21 O21           -6.8151     6.4129    -0.5381 O.2     
  22 C22           -5.9478     7.2987     1.8246 C.3     
  23 C23           -6.9444     8.4201     1.9668 C.ar    
  24 C24           -8.2982     8.1395     2.0320 C.ar    
  25 C25           -9.2130     9.1708     2.1626 C.ar    
  26 C26           -8.7747    10.4799     2.2278 C.ar    
  27 C27           -7.4231    10.7613     2.1629 C.ar    
  28 C28           -6.5062     9.7312     2.0380 C.ar    
  29 F29           -5.1847    10.0061     1.9806 F       
  30 F30           -8.7270     6.8600     1.9677 F       
  31 H31           -0.9212    -0.5644     0.0082 H       
  32 H32            1.2690    -1.7395    -0.0191 H       
  33 H33            3.3489    -0.3818    -0.0317 H       
  34 H34            3.1899     2.0764    -0.0174 H       
  35 H35           -0.5066     3.9539     0.0259 H       
  36 H36           -6.3407     6.4008     2.3017 H       
  37 H37           -5.0101     7.5831     2.3020 H       
  38 H38          -10.2695     8.9521     2.2131 H       
  39 H39           -9.4889    11.2837     2.3293 H       
  40 H40           -7.0818    11.7847     2.2136 H       
@<TRIPOS>BOND
   1    1    2 ar
   2    1    6 ar
   3    1    7 1
   4    2    3 ar
   5    2   31 1
   6    3    4 ar
   7    3   32 1
   8    4    5 ar
   9    4   33 1
  10    5    6 ar
  11    5   34 1
  12    7    8 2
  13    7    9 am
  14    9   11 1
  15    9   35 1
  16   10   11 1
  17   10   14 1
  18   11   12 2
  19   12   13 1
  20   13   14 2
  21   13   15 1
  22   14   19 1
  23   15   16 1
  24   15   17 1
  25   15   18 1
  26   19   20 2
  27   19   21 2
  28   19   22 1
  29   22   23 1
  30   22   36 1
  31   22   37 1
  32   23   24 ar
  33   23   28 ar
  34   24   25 ar
  35   24   30 1
  36   25   26 ar
  37   25   38 1
  38   26   27 ar
  39   26   39 1
  40   27   28 ar
  41   27   40 1
  42   28   29 1

#	End of record

