#	Name: ASD04882248
#	Creating user name:	WinNT
#	Creation time:	15. 06. 2019 20:54

#	Modifying user name:	WinNT
#	Modification time:	15. 06. 2019 20:54

#	Program:	/corina/corina34_cracker 3.40 0067  02.08.2006

@<TRIPOS>MOLECULE
ASD04882248
  77   81    0    0    0
SMALL
NO_CHARGES


@<TRIPOS>ATOM
   1 N1            -0.1363     1.5551    -0.0363 N.am    
   2 C2            -0.0765     0.1555    -0.0459 C.ar    
   3 C3            -1.2529    -0.5954     0.0294 C.ar    
   4 C4            -1.1950    -1.9843     0.0200 C.ar    
   5 C5             0.0210    -2.6254    -0.0639 C.ar    
   6 C6             1.2013    -1.8806    -0.1399 C.ar    
   7 C7             1.1456    -0.4840    -0.1354 C.ar    
   8 N8            -2.4846     0.0486     0.1143 N.3     
   9 C9            -2.6116     0.7769     1.3844 C.3     
  10 C10           -3.5901    -0.9045    -0.0558 C.3     
  11 C11           -4.9203    -0.1478    -0.0356 C.3     
  12 N12           -5.0473     0.5805     1.2345 N.3     
  13 C13           -3.9418     1.5336     1.4046 C.3     
  14 C14            2.5038    -2.5676    -0.2291 C.2     
  15 O15            3.5301    -1.9188    -0.2952 O.2     
  16 N16            2.5562    -3.9143    -0.2375 N.am    
  17 C17           -6.2828     1.2265     1.3197 C.ar    
  18 C18           -7.1952     1.1238     0.2776 C.ar    
  19 C19           -6.6040     1.9685     2.4495 C.ar    
  20 C20           -7.8262     2.6060     2.5304 C.ar    
  21 C21           -8.7304     2.5059     1.4886 C.ar    
  22 C22           -8.4160     1.7639     0.3651 C.ar    
  23 C23            3.8496    -4.5966    -0.3262 C.3     
  24 C24            3.6293    -6.1106    -0.3169 C.3     
  25 C25            4.9801    -6.8231    -0.4095 C.3     
  26 N26            4.7692    -8.2728    -0.4007 N.am    
  27 C27            0.8455     2.2676     0.5511 C.2     
  28 C28            0.8485     3.7306     0.4536 C.2     
  29 C29            4.5694    -9.0879    -1.6047 C.3     
  30 C30            3.9673   -10.4200    -1.1053 C.3     
  31 C31            4.4879   -10.4755     0.3496 C.3     
  32 C32            4.7395    -9.0281     0.7108 C.2     
  33 O33            4.8857    -8.6092     1.8395 O.2     
  34 C34           -8.1755     3.4111     3.7555 C.3     
  35 O35            1.7295     1.6965     1.1625 O.2     
  36 C36            1.7783     4.5692     0.9987 C.2     
  37 O37           -0.0634     4.4838    -0.1954 O.3     
  38 C38            0.2600     5.7777    -0.0723 C.2     
  39 C39            1.3922     5.8752     0.6589 C.2     
  40 C40           -0.5096     6.9341    -0.6567 C.3     
  41 H41           -0.8822     2.0115    -0.4560 H       
  42 H42           -2.1057    -2.5620     0.0790 H       
  43 H43            0.0627    -3.7046    -0.0706 H       
  44 H44            2.0559     0.0941    -0.1944 H       
  45 H45           -2.5829     0.0698     2.2135 H       
  46 H46           -1.7888     1.4851     1.4814 H       
  47 H47           -3.4806    -1.4221    -1.0088 H       
  48 H48           -3.5725    -1.6307     0.7569 H       
  49 H49           -4.9490     0.5593    -0.8646 H       
  50 H50           -5.7431    -0.8560    -0.1325 H       
  51 H51           -4.0513     2.0512     2.3576 H       
  52 H52           -3.9594     2.2598     0.5919 H       
  53 H53            1.7375    -4.4319    -0.1848 H       
  54 H54           -6.9503     0.5444    -0.6003 H       
  55 H55           -5.8987     2.0465     3.2636 H       
  56 H56           -9.6859     3.0049     1.5548 H       
  57 H57           -9.1243     1.6879    -0.4466 H       
  58 H58            4.3500    -4.3078    -1.2504 H       
  59 H59            4.4684    -4.3142     0.5256 H       
  60 H60            3.1288    -6.3993     0.6073 H       
  61 H61            3.0105    -6.3929    -1.1687 H       
  62 H62            5.4806    -6.5343    -1.3338 H       
  63 H63            5.5989    -6.5407     0.4422 H       
  64 H64            3.8767    -8.5924    -2.2850 H       
  65 H65            5.5230    -9.2676    -2.1011 H       
  66 H66            2.8780   -10.3888    -1.1289 H       
  67 H67            4.3446   -11.2610    -1.6871 H       
  68 H68            3.7357   -10.9106     1.0076 H       
  69 H69            5.4162   -11.0445     0.4011 H       
  70 H70           -7.8517     4.4426     3.6168 H       
  71 H71           -9.2541     3.3866     3.9110 H       
  72 H72           -7.6733     2.9864     4.6247 H       
  73 H73            2.6428     4.2830     1.5792 H       
  74 H74            1.9039     6.7867     0.9307 H       
  75 H75           -1.3766     6.5566    -1.1988 H       
  76 H76           -0.8414     7.5925     0.1461 H       
  77 H77            0.1326     7.4897    -1.3401 H       
@<TRIPOS>BOND
   1    1    2 1
   2    1   27 am
   3    1   41 1
   4    2    3 ar
   5    2    7 ar
   6    3    4 ar
   7    3    8 1
   8    4    5 ar
   9    4   42 1
  10    5    6 ar
  11    5   43 1
  12    6    7 ar
  13    6   14 1
  14    7   44 1
  15    8    9 1
  16    8   10 1
  17    9   13 1
  18    9   45 1
  19    9   46 1
  20   10   11 1
  21   10   47 1
  22   10   48 1
  23   11   12 1
  24   11   49 1
  25   11   50 1
  26   12   13 1
  27   12   17 1
  28   13   51 1
  29   13   52 1
  30   14   15 2
  31   14   16 am
  32   16   23 1
  33   16   53 1
  34   17   18 ar
  35   17   19 ar
  36   18   22 ar
  37   18   54 1
  38   19   20 ar
  39   19   55 1
  40   20   21 ar
  41   20   34 1
  42   21   22 ar
  43   21   56 1
  44   22   57 1
  45   23   24 1
  46   23   58 1
  47   23   59 1
  48   24   25 1
  49   24   60 1
  50   24   61 1
  51   25   26 1
  52   25   62 1
  53   25   63 1
  54   26   29 1
  55   26   32 am
  56   27   35 2
  57   27   28 1
  58   28   36 2
  59   28   37 1
  60   29   30 1
  61   29   64 1
  62   29   65 1
  63   30   31 1
  64   30   66 1
  65   30   67 1
  66   31   32 1
  67   31   68 1
  68   31   69 1
  69   32   33 2
  70   34   70 1
  71   34   71 1
  72   34   72 1
  73   36   39 1
  74   36   73 1
  75   37   38 1
  76   38   39 2
  77   38   40 1
  78   39   74 1
  79   40   75 1
  80   40   76 1
  81   40   77 1

#	End of record

