#	Name: ASD01813402
#	Creating user name:	WinNT
#	Creation time:	15. 06. 2019 19:30

#	Modifying user name:	WinNT
#	Modification time:	15. 06. 2019 19:30

#	Program:	/corina/corina34_cracker 3.40 0067  02.08.2006

@<TRIPOS>MOLECULE
ASD01813402
  55   59    0    0    0
SMALL
NO_CHARGES


@<TRIPOS>ATOM
   1 C1            -0.0169     1.3972     0.0097 C.2     
   2 C2             0.0021    -0.0041     0.0020 C.2     
   3 C3             1.1986    -0.6593    -0.0129 C.2     
   4 C4             2.3918     0.0821    -0.0204 C.2     
   5 N5             2.3437     1.4497    -0.0122 N.am    
   6 C6             1.1421     2.0937     0.0024 C.2     
   7 C7             3.6227    -0.5889    -0.0356 C.2     
   8 C8             4.7877     0.1218    -0.0425 C.2     
   9 C9             4.7345     1.5280    -0.0346 C.2     
  10 C10            3.4812     2.1736    -0.0189 C.2     
  11 O11            3.4258     3.3917    -0.0123 O.2     
  12 C12            5.9703     2.3140    -0.0413 C.2     
  13 O13            5.9124     3.6618    -0.0337 O.3     
  14 O14            7.0487     1.7516    -0.0537 O.2     
  15 C15            3.6593    -2.0954    -0.0439 C.3     
  16 C16            3.7837    -2.5946    -1.4848 C.3     
  17 N17            3.8194    -4.0631    -1.4929 N.3     
  18 C18            2.5422    -4.6223    -1.0391 C.3     
  19 C19            2.5566    -6.1252    -1.1447 C.ar    
  20 C20            3.4818    -6.7903    -1.9225 C.ar    
  21 C21            4.5358    -6.0498    -2.7054 C.3     
  22 C22            4.1525    -4.5752    -2.8318 C.3     
  23 C23            1.6049    -6.8441    -0.4338 C.ar    
  24 C24            1.5741    -8.2200    -0.4987 C.ar    
  25 C25            2.5051    -8.8962    -1.2849 C.ar    
  26 C26            3.4574    -8.1729    -1.9960 C.ar    
  27 C27            2.4806   -10.3778    -1.3635 C.ar    
  28 C28            3.4081   -11.0604    -2.1473 C.ar    
  29 N29            3.3877   -12.3759    -2.2176 N.ar    
  30 C30            2.5002   -13.0945    -1.5578 C.ar    
  31 C31            1.5462   -12.4909    -0.7586 C.ar    
  32 C32            1.5303   -11.1113    -0.6477 C.ar    
  33 H33           -0.9605     1.9226     0.0170 H       
  34 H34           -0.9233    -0.5609     0.0082 H       
  35 H35            1.2282    -1.7389    -0.0187 H       
  36 H36            1.1156     3.1733     0.0087 H       
  37 H37            5.7393    -0.3889    -0.0536 H       
  38 H38            6.7544     4.1373    -0.0385 H       
  39 H39            4.5153    -2.4412     0.5356 H       
  40 H40            2.7412    -2.4836     0.3971 H       
  41 H41            2.9277    -2.2488    -2.0643 H       
  42 H42            4.7018    -2.2064    -1.9259 H       
  43 H43            2.3730    -4.3363    -0.0010 H       
  44 H44            1.7363    -4.2260    -1.6568 H       
  45 H45            5.4932    -6.1320    -2.1908 H       
  46 H46            4.6224    -6.4876    -3.6998 H       
  47 H47            3.2872    -4.4766    -3.4873 H       
  48 H48            4.9915    -4.0124    -3.2409 H       
  49 H49            0.8831    -6.3204     0.1753 H       
  50 H50            0.8315    -8.7724     0.0579 H       
  51 H51            4.1811    -8.6919    -2.6070 H       
  52 H52            4.1503   -10.5063    -2.7026 H       
  53 H53            2.5184   -14.1709    -1.6431 H       
  54 H54            0.8241   -13.0898    -0.2236 H       
  55 H55            0.7969   -10.6138    -0.0305 H       
@<TRIPOS>BOND
   1    1    2 1
   2    1    6 2
   3    1   33 1
   4    2    3 2
   5    2   34 1
   6    3    4 1
   7    3   35 1
   8    4    5 1
   9    4    7 2
  10    5    6 1
  11    5   10 am
  12    6   36 1
  13    7    8 1
  14    7   15 1
  15    8    9 2
  16    8   37 1
  17    9   10 1
  18    9   12 1
  19   10   11 2
  20   12   13 1
  21   12   14 2
  22   13   38 1
  23   15   16 1
  24   15   39 1
  25   15   40 1
  26   16   17 1
  27   16   41 1
  28   16   42 1
  29   17   18 1
  30   17   22 1
  31   18   19 1
  32   18   43 1
  33   18   44 1
  34   19   20 ar
  35   19   23 ar
  36   20   21 1
  37   20   26 ar
  38   21   22 1
  39   21   45 1
  40   21   46 1
  41   22   47 1
  42   22   48 1
  43   23   24 ar
  44   23   49 1
  45   24   25 ar
  46   24   50 1
  47   25   26 ar
  48   25   27 1
  49   26   51 1
  50   27   28 ar
  51   27   32 ar
  52   28   29 ar
  53   28   52 1
  54   29   30 ar
  55   30   31 ar
  56   30   53 1
  57   31   32 ar
  58   31   54 1
  59   32   55 1

#	End of record

