#	Name: ASD01708005
#	Creating user name:	WinNT
#	Creation time:	15. 06. 2019 19:22

#	Modifying user name:	WinNT
#	Modification time:	15. 06. 2019 19:22

#	Program:	/corina/corina34_cracker 3.40 0067  02.08.2006

@<TRIPOS>MOLECULE
ASD01708005
  67   71    0    0    0
SMALL
NO_CHARGES


@<TRIPOS>ATOM
   1 C1            -0.5157     1.3035    -0.2395 C.2     
   2 C2             0.1261    -0.0008    -0.0514 C.ar    
   3 C3            -1.6499     1.0690    -0.9171 C.2     
   4 O4            -1.7768    -0.2446    -1.1678 O.3     
   5 C5            -0.7310    -0.9328    -0.6659 C.ar    
   6 C6             1.3063    -0.4248     0.5628 C.ar    
   7 C7            -0.3935    -2.2759    -0.6558 C.ar    
   8 C8             0.7871    -2.6868    -0.0391 C.ar    
   9 C9             1.6322    -1.7489     0.5685 C.ar    
  10 C10            1.1491    -4.1177    -0.0263 C.2     
  11 N11            0.1865    -5.0554     0.0767 N.am    
  12 O12            2.3156    -4.4505    -0.1088 O.2     
  13 C13           -1.2142    -4.6886     0.3104 C.3     
  14 C14           -1.8070    -5.5905     1.3646 C.ar    
  15 C15           -1.1623    -6.7239     1.8108 C.ar    
  16 C16            0.1906    -7.1484     1.3023 C.3     
  17 C17            0.4976    -6.4893    -0.0469 C.3     
  18 C18           -1.7635    -7.5225     2.7747 C.ar    
  19 C19           -3.0479    -5.2437     1.8857 C.ar    
  20 C20           -3.6526    -6.0257     2.8455 C.ar    
  21 C21           -3.0093    -7.1809     3.2988 C.ar    
  22 Cl22          -0.9584    -8.9565     3.3306 Cl      
  23 Cl23          -5.2026    -5.5795     3.4873 Cl      
  24 C24           -3.6448    -8.0332     4.3239 C.2     
  25 N25           -3.4123    -7.8018     5.6312 N.am    
  26 O26           -4.3775    -8.9435     3.9887 O.2     
  27 C27           -4.0427    -8.6473     6.6481 C.3     
  28 C28           -5.4238    -8.1253     6.9497 C.2     
  29 O29           -6.1927    -8.7468     7.8576 O.3     
  30 O30           -5.8391    -7.1474     6.3742 O.2     
  31 C31           -3.1991    -8.6249     7.9243 C.3     
  32 N32           -1.8240    -9.0187     7.6078 N.pl3   
  33 C33           -0.8836    -9.0714     8.5972 C.2     
  34 N34            0.3720    -9.5338     8.3222 N.pl3   
  35 N35           -1.1886    -8.6752     9.8205 N.2     
  36 C36           -2.4616    -8.3206    10.1201 C.1     
  37 N37           -3.5289    -8.0233    10.3713 N.1     
  38 C38            1.4752    -9.6437     9.2878 C.3     
  39 C39            0.8434   -10.0113     7.0095 C.3     
  40 C40            2.3807    -9.8243     7.0482 C.3     
  41 C41            2.7004   -10.1882     8.5237 C.3     
  42 H42           -0.1511     2.2608     0.1027 H       
  43 H43           -2.3587     1.8267    -1.2169 H       
  44 H44            1.9603     0.2950     1.0325 H       
  45 H45           -1.0423    -3.0017    -1.1233 H       
  46 H46            2.5453    -2.0760     1.0436 H       
  47 H47           -1.2665    -3.6534     0.6476 H       
  48 H48           -1.7768    -4.7961    -0.6170 H       
  49 H49            0.9525    -6.8593     2.0262 H       
  50 H50            0.2045    -8.2316     1.1818 H       
  51 H51           -0.1179    -6.9393    -0.8258 H       
  52 H52            1.5525    -6.6181    -0.2889 H       
  53 H53           -3.5440    -4.3511     1.5341 H       
  54 H54           -2.8277    -7.0755     5.8987 H       
  55 H55           -4.1136    -9.6699     6.2774 H       
  56 H56           -7.0711    -8.3751     8.0171 H       
  57 H57           -3.2015    -7.6188     8.3439 H       
  58 H58           -3.6188    -9.3220     8.6496 H       
  59 H59           -1.5812    -9.2419     6.6956 H       
  60 H60            1.7036    -8.6620     9.7030 H       
  61 H61            1.2010   -10.3320    10.0873 H       
  62 H62            0.5925   -11.0636     6.8761 H       
  63 H63            0.4085    -9.4123     6.2094 H       
  64 H64            2.8752   -10.5113     6.3615 H       
  65 H65            2.6543    -8.7920     6.8303 H       
  66 H66            3.6132    -9.6924     8.8541 H       
  67 H67            2.7813   -11.2684     8.6456 H       
@<TRIPOS>BOND
   1    1    2 1
   2    1    3 2
   3    1   42 1
   4    2    6 ar
   5    2    5 ar
   6    3    4 1
   7    3   43 1
   8    4    5 1
   9    5    7 ar
  10    6    9 ar
  11    6   44 1
  12    7    8 ar
  13    7   45 1
  14    8    9 ar
  15    8   10 1
  16    9   46 1
  17   10   11 am
  18   10   12 2
  19   11   13 1
  20   11   17 1
  21   13   14 1
  22   13   47 1
  23   13   48 1
  24   14   15 ar
  25   14   19 ar
  26   15   16 1
  27   15   18 ar
  28   16   17 1
  29   16   49 1
  30   16   50 1
  31   17   51 1
  32   17   52 1
  33   18   22 1
  34   18   21 ar
  35   19   20 ar
  36   19   53 1
  37   20   21 ar
  38   20   23 1
  39   21   24 1
  40   24   25 am
  41   24   26 2
  42   25   27 1
  43   25   54 1
  44   27   28 1
  45   27   31 1
  46   27   55 1
  47   28   29 1
  48   28   30 2
  49   29   56 1
  50   31   32 1
  51   31   57 1
  52   31   58 1
  53   32   33 1
  54   32   59 1
  55   33   34 1
  56   33   35 2
  57   34   38 1
  58   34   39 1
  59   35   36 1
  60   36   37 3
  61   38   41 1
  62   38   60 1
  63   38   61 1
  64   39   40 1
  65   39   62 1
  66   39   63 1
  67   40   41 1
  68   40   64 1
  69   40   65 1
  70   41   66 1
  71   41   67 1

#	End of record

