#	Name: ASD06090001
#	Creating user name:	WinNT
#	Creation time:	15. 06. 2019 21:04

#	Modifying user name:	WinNT
#	Modification time:	15. 06. 2019 21:04

#	Program:	/corina/corina34_cracker 3.40 0067  02.08.2006

@<TRIPOS>MOLECULE
ASD06090001
  22   24    0    0    0
SMALL
NO_CHARGES


@<TRIPOS>ATOM
   1 Cl1           -3.7696    -4.6458     0.0125 Cl      
   2 O2             1.7567    -3.0453    -0.0306 O.2     
   3 N3            -0.0159     1.3213     0.0093 N.ar    
   4 N4             2.3715    -0.0134    -0.0210 N.ar    
   5 N5             1.0894     4.5706     0.0154 N.1     
   6 N6             4.5621     2.6299    -0.0273 N.1     
   7 C7            -1.0956    -1.0051     0.0071 C.ar    
   8 C8            -0.5328    -2.2928    -0.0052 C.ar    
   9 C9             0.0021    -0.0041     0.0020 C.ar    
  10 C10            1.2346    -0.6882    -0.0134 C.ar    
  11 C11            0.9419    -2.1458    -0.0185 C.2     
  12 C12           -2.4768    -0.8619     0.0218 C.ar    
  13 C13           -1.3593    -3.4101    -0.0033 C.ar    
  14 C14           -3.2908    -1.9837     0.0243 C.ar    
  15 C15           -2.7370    -3.2504     0.0107 C.ar    
  16 C16            1.1263     2.0029     0.0021 C.ar    
  17 C17            2.3554     1.3166    -0.0134 C.ar    
  18 C18            1.1058     3.4347     0.0095 C.1     
  19 C19            3.5860     2.0490    -0.0211 C.1     
  20 H20           -2.9170     0.1242     0.0317 H       
  21 H21           -0.9297    -4.4009    -0.0131 H       
  22 H22           -4.3644    -1.8675     0.0357 H       
@<TRIPOS>BOND
   1    1   15 1
   2    2   11 2
   3    3    9 ar
   4    3   16 ar
   5    4   10 ar
   6    4   17 ar
   7    5   18 3
   8    6   19 3
   9    7    8 ar
  10    7    9 1
  11    7   12 ar
  12    8   11 1
  13    8   13 ar
  14    9   10 ar
  15   10   11 1
  16   12   14 ar
  17   12   20 1
  18   13   15 ar
  19   13   21 1
  20   14   15 ar
  21   14   22 1
  22   16   17 ar
  23   16   18 1
  24   17   19 1

#	End of record

