#	Name: ASD02030153
#	Creating user name:	WinNT
#	Creation time:	15. 06. 2019 20:14

#	Modifying user name:	WinNT
#	Modification time:	15. 06. 2019 20:14

#	Program:	/corina/corina34_cracker 3.40 0067  02.08.2006

@<TRIPOS>MOLECULE
ASD02030153
  52   55    0    0    0
SMALL
NO_CHARGES


@<TRIPOS>ATOM
   1 N1            -0.2321     1.2021     0.7857 N.am    
   2 C2            -0.3144    -0.2648     0.8230 C.3     
   3 C3            -1.4815    -0.6672     1.7331 C.3     
   4 N4            -2.6714     0.0991     1.3373 N.am    
   5 C5            -2.5892     1.5659     1.3000 C.3     
   6 C6            -1.4237     1.9686     0.3954 C.3     
   7 C7             0.9139     1.8333     1.1092 C.2     
   8 C8             2.0612     1.0609     1.6313 C.2     
   9 N9             3.1876     1.5629     2.0897 N.2     
  10 N10            2.1352    -0.2794     1.7269 N.2     
  11 C11            3.3055    -0.5690     2.2361 C.2     
  12 N12            3.9525     0.5936     2.4579 N.pl3   
  13 O13            1.0042     3.0377     0.9716 O.2     
  14 C14           -3.8175    -0.5321     1.0139 C.2     
  15 C15           -3.8537    -2.0069     0.9429 C.ar    
  16 O16           -4.8215     0.1125     0.7805 O.2     
  17 C17           -1.1468     3.4653     0.5503 C.3     
  18 C18           -1.7723     1.6553    -1.0611 C.3     
  19 C19           -4.2197    -2.6442    -0.2465 C.ar    
  20 C20            5.2394     0.7250     2.9971 C.ar    
  21 C21            5.7937     1.9855     3.1751 C.ar    
  22 C22            7.0622     2.1117     3.7068 C.ar    
  23 C23            7.7802     0.9843     4.0611 C.ar    
  24 C24            7.2309    -0.2724     3.8850 C.ar    
  25 C25            5.9604    -0.4049     3.3596 C.ar    
  26 C26           -4.2507    -4.0258    -0.3049 C.ar    
  27 C27           -3.9209    -4.7748     0.8087 C.ar    
  28 C28           -3.5579    -4.1489     1.9904 C.ar    
  29 C29           -3.5169    -2.7717     2.0619 C.ar    
  30 Cl30          -3.1469    -5.1005     3.3830 Cl      
  31 F31           -4.5426    -1.9127    -1.3355 F       
  32 H32           -0.4863    -0.6472    -0.1831 H       
  33 H33            0.6156    -0.6734     1.2184 H       
  34 H34           -1.6799    -1.7334     1.6237 H       
  35 H35           -1.2307    -0.4438     2.7700 H       
  36 H36           -3.5191     1.9745     0.9046 H       
  37 H37           -2.4173     1.9484     2.3061 H       
  38 H38            3.6833    -1.5591     2.4441 H       
  39 H39           -0.7669     3.6627     1.5527 H       
  40 H40           -0.4062     3.7760    -0.1867 H       
  41 H41           -2.0700     4.0236     0.3951 H       
  42 H42           -2.6636     2.2126    -1.3493 H       
  43 H43           -0.9402     1.9432    -1.7038 H       
  44 H44           -1.9612     0.5872    -1.1678 H       
  45 H45            5.2337     2.8664     2.8979 H       
  46 H46            7.4939     3.0919     3.8455 H       
  47 H47            8.7722     1.0855     4.4760 H       
  48 H48            7.7941    -1.1511     4.1628 H       
  49 H49            5.5318    -1.3867     3.2226 H       
  50 H50           -4.5334    -4.5202    -1.2225 H       
  51 H51           -3.9467    -5.8533     0.7578 H       
  52 H52           -3.2337    -2.2859     2.9840 H       
@<TRIPOS>BOND
   1    1    2 1
   2    1    7 am
   3    1    6 1
   4    2    3 1
   5    2   32 1
   6    2   33 1
   7    3    4 1
   8    3   34 1
   9    3   35 1
  10    4    5 1
  11    4   14 am
  12    5    6 1
  13    5   36 1
  14    5   37 1
  15    6   17 1
  16    6   18 1
  17    7    8 1
  18    7   13 2
  19    8    9 2
  20    8   10 1
  21    9   12 1
  22   10   11 2
  23   11   12 1
  24   11   38 1
  25   12   20 1
  26   14   15 1
  27   14   16 2
  28   15   19 ar
  29   15   29 ar
  30   17   39 1
  31   17   40 1
  32   17   41 1
  33   18   42 1
  34   18   43 1
  35   18   44 1
  36   19   26 ar
  37   19   31 1
  38   20   21 ar
  39   20   25 ar
  40   21   22 ar
  41   21   45 1
  42   22   23 ar
  43   22   46 1
  44   23   24 ar
  45   23   47 1
  46   24   25 ar
  47   24   48 1
  48   25   49 1
  49   26   27 ar
  50   26   50 1
  51   27   28 ar
  52   27   51 1
  53   28   29 ar
  54   28   30 1
  55   29   52 1

#	End of record

