#	Name: ASD03430319
#	Creating user name:	WinNT
#	Creation time:	15. 06. 2019 20:40

#	Modifying user name:	WinNT
#	Modification time:	15. 06. 2019 20:40

#	Program:	/corina/corina34_cracker 3.40 0067  02.08.2006

@<TRIPOS>MOLECULE
ASD03430319
  47   53    0    0    0
SMALL
NO_CHARGES


@<TRIPOS>ATOM
   1 C1            -0.0167     1.3805     0.0096 C.ar    
   2 C2             0.0021    -0.0041     0.0020 C.ar    
   3 C3             1.2036    -0.6814    -0.0138 C.ar    
   4 C4             2.4093     0.0135    -0.0105 C.ar    
   5 C5             2.3874     1.4050    -0.0076 C.ar    
   6 C6             1.1839     2.0868     0.0020 C.ar    
   7 O7             3.4720    -0.8412     0.0020 O.3     
   8 C8             1.5522    -2.1452    -0.0506 C.3     
   9 C9             3.0387    -2.1442    -0.4333 C.3     
  10 C10            0.4259    -3.8631     0.9986 C.ar    
  11 C11            1.3136    -2.8236     1.2655 C.ar    
  12 C12            0.7209    -2.9031    -1.0456 C.2     
  13 N13            0.0992    -3.8826    -0.3595 N.am    
  14 O14            0.6270    -2.6776    -2.2337 O.2     
  15 C15            1.7771    -2.6093     2.5452 C.ar    
  16 C16            1.3613    -3.4308     3.5799 C.ar    
  17 C17            0.4805    -4.4653     3.3252 C.ar    
  18 C18            0.0139    -4.6839     2.0452 C.ar    
  19 C19           -0.8127    -4.8549    -0.9673 C.3     
  20 O20           -1.0497     2.2736     0.0188 O.3     
  21 C21           -0.4709     3.5263     0.4301 C.3     
  22 O22            0.9022     3.4231     0.0056 O.3     
  23 C23           -2.2202    -4.3182    -0.9248 C.2     
  24 N24           -2.7954    -3.5947    -1.8383 N.2     
  25 O25           -3.9303    -3.3240    -1.5066 O.3     
  26 C26           -4.1950    -3.8656    -0.3138 C.2     
  27 N27           -3.1139    -4.5050     0.0628 N.2     
  28 C28           -5.4903    -3.7654     0.4498 C.3     
  29 Cl29           2.8834    -1.3092     2.8607 Cl      
  30 C30           -5.9757    -2.3671     0.8372 C.3     
  31 C31           -6.6889    -3.1448    -0.2707 C.3     
  32 H32           -0.9267    -0.5552     0.0088 H       
  33 H33            3.3162     1.9561    -0.0125 H       
  34 H34            3.1609    -2.2527    -1.5110 H       
  35 H35            3.5761    -2.9288     0.0993 H       
  36 H36            1.7240    -3.2632     4.5833 H       
  37 H37            0.1563    -5.1059     4.1320 H       
  38 H38           -0.6740    -5.4943     1.8545 H       
  39 H39           -0.5210    -5.0283    -2.0031 H       
  40 H40           -0.7647    -5.7930    -0.4144 H       
  41 H41           -0.9635     4.3589    -0.0721 H       
  42 H42           -0.5329     3.6397     1.5124 H       
  43 H43           -5.6883    -4.5783     1.1484 H       
  44 H44           -6.4933    -2.2601     1.7904 H       
  45 H45           -5.3581    -1.5196     0.5397 H       
  46 H46           -6.5406    -2.8090    -1.2970 H       
  47 H47           -7.6758    -3.5495    -0.0462 H       
@<TRIPOS>BOND
   1    1    2 ar
   2    1    6 ar
   3    1   20 1
   4    2    3 ar
   5    2   32 1
   6    3    4 ar
   7    3    8 1
   8    4    5 ar
   9    4    7 1
  10    5    6 ar
  11    5   33 1
  12    6   22 1
  13    7    9 1
  14    8    9 1
  15    8   11 1
  16    8   12 1
  17    9   34 1
  18    9   35 1
  19   10   11 ar
  20   10   13 1
  21   10   18 ar
  22   11   15 ar
  23   12   13 am
  24   12   14 2
  25   13   19 1
  26   15   16 ar
  27   15   29 1
  28   16   17 ar
  29   16   36 1
  30   17   18 ar
  31   17   37 1
  32   18   38 1
  33   19   23 1
  34   19   39 1
  35   19   40 1
  36   20   21 1
  37   21   22 1
  38   21   41 1
  39   21   42 1
  40   23   24 2
  41   23   27 1
  42   24   25 1
  43   25   26 1
  44   26   27 2
  45   26   28 1
  46   28   30 1
  47   28   31 1
  48   28   43 1
  49   30   31 1
  50   30   44 1
  51   30   45 1
  52   31   46 1
  53   31   47 1

#	End of record

