#	Name: ASD03731571
#	Creating user name:	WinNT
#	Creation time:	15. 06. 2019 20:46

#	Modifying user name:	WinNT
#	Modification time:	15. 06. 2019 20:46

#	Program:	/corina/corina34_cracker 3.40 0067  02.08.2006

@<TRIPOS>MOLECULE
ASD03731571
  36   37    0    0    0
SMALL
NO_CHARGES


@<TRIPOS>ATOM
   1 C1            -1.9838     1.0674     0.3968 C.2     
   2 C2            -1.4469    -0.2999     0.2870 C.ar    
   3 C3            -0.7514    -0.8705     1.3609 C.ar    
   4 C4            -0.2510    -2.1528     1.2520 C.ar    
   5 C5            -0.4366    -2.8768     0.0785 C.ar    
   6 C6            -1.1256    -2.3150    -0.9887 C.ar    
   7 C7            -1.6350    -1.0364    -0.8889 C.ar    
   8 O8            -1.3019     2.0171     0.0616 O.2     
   9 N9            -3.2325     1.2657     0.8635 N.am    
  10 S10           -3.8360     2.8029     0.9869 S.o2    
  11 O11           -5.1379     2.6258     1.5282 O.2     
  12 O12           -2.8360     3.5156     1.7019 O.2     
  13 C13           -3.9336     3.3897    -0.7268 C.3     
  14 F14           -2.3093    -0.4939    -1.9263 F       
  15 F15            0.4201    -2.7051     2.2863 F       
  16 F16           -0.5702    -0.1675     2.5003 F       
  17 O17            0.0580    -4.1368    -0.0240 O.3     
  18 C18           -0.0489    -4.7686    -1.2225 C.ar    
  19 C19            0.9507    -4.6265    -2.1745 C.ar    
  20 C20            0.8404    -5.2698    -3.3916 C.ar    
  21 C21           -0.2662    -6.0557    -3.6622 C.ar    
  22 C22           -1.2641    -6.1983    -2.7146 C.ar    
  23 C23           -1.1548    -5.5611    -1.4937 C.ar    
  24 C24            1.9254    -5.1154    -4.4260 C.3     
  25 F25            2.9306    -4.2805    -3.9264 F       
  26 F26            2.4671    -6.3703    -4.7245 F       
  27 F27            1.3858    -4.5522    -5.5874 F       
  28 Cl28          -0.4025    -6.8633    -5.1929 Cl      
  29 H29           -1.2666    -2.8817    -1.8972 H       
  30 H30           -3.7778     0.5080     1.1271 H       
  31 H31           -4.5950     2.7375    -1.2971 H       
  32 H32           -4.3257     4.4067    -0.7408 H       
  33 H33           -2.9388     3.3777    -1.1722 H       
  34 H34            1.8142    -4.0130    -1.9639 H       
  35 H35           -2.1270    -6.8118    -2.9278 H       
  36 H36           -1.9317    -5.6765    -0.7524 H       
@<TRIPOS>BOND
   1    1    2 1
   2    1    8 2
   3    1    9 am
   4    2    3 ar
   5    2    7 ar
   6    3    4 ar
   7    3   16 1
   8    4    5 ar
   9    4   15 1
  10    5    6 ar
  11    5   17 1
  12    6    7 ar
  13    6   29 1
  14    7   14 1
  15    9   10 am
  16    9   30 1
  17   10   11 2
  18   10   12 2
  19   10   13 1
  20   13   31 1
  21   13   32 1
  22   13   33 1
  23   17   18 1
  24   18   19 ar
  25   18   23 ar
  26   19   20 ar
  27   19   34 1
  28   20   21 ar
  29   20   24 1
  30   21   22 ar
  31   21   28 1
  32   22   23 ar
  33   22   35 1
  34   23   36 1
  35   24   25 1
  36   24   26 1
  37   24   27 1

#	End of record

