#	Name: ASD01884889
#	Creating user name:	WinNT
#	Creation time:	15. 06. 2019 19:49

#	Modifying user name:	WinNT
#	Modification time:	15. 06. 2019 19:49

#	Program:	/corina/corina34_cracker 3.40 0067  02.08.2006

@<TRIPOS>MOLECULE
ASD01884889
  50   55    0    0    0
SMALL
NO_CHARGES


@<TRIPOS>ATOM
   1 C1             0.5547     1.4576     0.3247 C.ar    
   2 C2             0.4187     0.1010     0.2666 C.ar    
   3 C3             1.5370    -0.7219     0.0886 C.ar    
   4 C4             2.8023    -0.1611    -0.0318 C.ar    
   5 C5             2.9453     1.2245     0.0265 C.ar    
   6 C6             1.8130     2.0414     0.2064 C.ar    
   7 C7             4.0920     2.1331    -0.0608 C.2     
   8 C8             3.6146     3.3813     0.0641 C.2     
   9 N9             2.2544     3.3473     0.2247 N.pl3   
  10 C10            1.3710    -2.1932     0.0288 C.2     
  11 C11            1.6149    -2.8758    -1.1480 C.2     
  12 C12            0.9666    -2.9144     1.1785 C.2     
  13 C13            0.8173    -4.2511     1.1224 C.2     
  14 N14            1.0510    -4.9328    -0.0371 N.pl3   
  15 C15            1.4493    -4.2710    -1.1734 C.2     
  16 C16            0.9819    -6.2492    -0.3788 C.2     
  17 N17            1.3152    -6.3469    -1.6398 N.2     
  18 N18            1.5939    -5.1861    -2.1197 N.2     
  19 C19            1.4344     4.4719     0.3834 C.ar    
  20 C20            0.5929    -7.3863     0.5304 C.3     
  21 C21           -0.6295    -8.2184     0.1377 C.3     
  22 C22            0.7749    -8.8095    -0.0008 C.3     
  23 C23            0.2969     4.6300    -0.3969 C.ar    
  24 N24           -0.4772     5.6868    -0.2505 N.ar    
  25 C25           -0.2083     6.6280     0.6329 C.ar    
  26 C26            0.9065     6.5413     1.4463 C.ar    
  27 C27            1.7450     5.4450     1.3302 C.ar    
  28 C28           -1.1284     7.8150     0.7574 C.3     
  29 C29            2.0515    -2.1348    -2.3855 C.3     
  30 F30            3.4304    -1.9054    -2.3296 F       
  31 F31            1.7515    -2.9001    -3.5175 F       
  32 F32            1.3778    -0.9108    -2.4581 F       
  33 H33           -0.3172     2.0807     0.4584 H       
  34 H34           -0.5617    -0.3423     0.3594 H       
  35 H35            3.6675    -0.7929    -0.1690 H       
  36 H36            5.1255     1.8516    -0.1988 H       
  37 H37            4.2140     4.2794     0.0420 H       
  38 H38            0.7777    -2.3902     2.1037 H       
  39 H39            0.5091    -4.7908     2.0056 H       
  40 H40            0.7676    -7.2193     1.5933 H       
  41 H41           -1.2588    -8.5991     0.9421 H       
  42 H42           -1.1523    -7.9433    -0.7784 H       
  43 H43            1.1760    -8.9234    -1.0079 H       
  44 H44            1.0695    -9.5792     0.7126 H       
  45 H45            0.0441     3.8797    -1.1314 H       
  46 H46            1.1188     7.3174     2.1668 H       
  47 H47            2.6224     5.3510     1.9528 H       
  48 H48           -1.9039     7.5980     1.4920 H       
  49 H49           -0.5568     8.6856     1.0789 H       
  50 H50           -1.5900     8.0198    -0.2085 H       
@<TRIPOS>BOND
   1    1    2 ar
   2    1    6 ar
   3    1   33 1
   4    2    3 ar
   5    2   34 1
   6    3    4 ar
   7    3   10 1
   8    4    5 ar
   9    4   35 1
  10    5    6 ar
  11    5    7 1
  12    6    9 1
  13    7    8 2
  14    7   36 1
  15    8    9 1
  16    8   37 1
  17    9   19 1
  18   10   11 2
  19   10   12 1
  20   11   29 1
  21   11   15 1
  22   12   13 2
  23   12   38 1
  24   13   14 1
  25   13   39 1
  26   14   15 1
  27   14   16 1
  28   15   18 2
  29   16   17 2
  30   16   20 1
  31   17   18 1
  32   19   23 ar
  33   19   27 ar
  34   20   21 1
  35   20   22 1
  36   20   40 1
  37   21   22 1
  38   21   41 1
  39   21   42 1
  40   22   43 1
  41   22   44 1
  42   23   24 ar
  43   23   45 1
  44   24   25 ar
  45   25   26 ar
  46   25   28 1
  47   26   27 ar
  48   26   46 1
  49   27   47 1
  50   28   48 1
  51   28   49 1
  52   28   50 1
  53   29   30 1
  54   29   31 1
  55   29   32 1

#	End of record

