#	Name: ASD03082248
#	Creating user name:	WinNT
#	Creation time:	15. 06. 2019 20:27

#	Modifying user name:	WinNT
#	Modification time:	15. 06. 2019 20:27

#	Program:	/corina/corina34_cracker 3.40 0067  02.08.2006

@<TRIPOS>MOLECULE
ASD03082248
  54   57    0    0    0
SMALL
NO_CHARGES


@<TRIPOS>ATOM
   1 N1            -1.2927     0.1047    -0.0226 N.pl3   
   2 N2            -1.4339    -1.2907     0.0485 N.2     
   3 C3            -0.2650    -1.7761     0.3997 C.2     
   4 N4             0.5960    -0.7691     0.5520 N.2     
   5 C5            -0.0084     0.3746     0.3006 C.2     
   6 N6             0.0285    -3.1285     0.5848 N.pl3   
   7 C7             1.3440    -3.5302     0.8388 C.ar    
   8 C8             1.5899    -4.7094     1.5307 C.ar    
   9 C9             2.8895    -5.1040     1.7805 C.ar    
  10 C10            3.9472    -4.3251     1.3417 C.ar    
  11 C11            3.7045    -3.1495     0.6519 C.ar    
  12 C12            2.4063    -2.7537     0.3948 C.ar    
  13 C13            3.1569    -6.3829     2.5314 C.3     
  14 F14            1.9417    -6.9891     2.8676 F       
  15 F15            3.9032    -7.2495     1.7257 F       
  16 F16            3.8740    -6.0973     3.6982 F       
  17 C17            2.5345     3.1506     0.3703 C.ar    
  18 C18            1.9971     1.8712     0.3109 C.ar    
  19 C19            0.6103     1.7180     0.3612 C.ar    
  20 C20           -0.1801     2.8692     0.4700 C.ar    
  21 C21            0.4330     4.1026     0.5231 C.ar    
  22 N22            1.7474     4.2109     0.4731 N.ar    
  23 C23           -2.3300     1.0748    -0.3820 C.3     
  24 F24            5.2178    -4.7129     1.5875 F       
  25 C25           -3.0809     1.4895     0.8570 C.2     
  26 N26           -4.0876     2.3812     0.7681 N.am    
  27 O27           -2.7793     1.0208     1.9342 O.2     
  28 C28           -4.8176     2.7843     1.9726 C.3     
  29 C29           -4.4519     2.9473    -0.5331 C.3     
  30 N30            3.9139     3.3198     0.3272 N.pl3   
  31 C31            4.7865     2.1660     0.0958 C.3     
  32 C32            6.1270     2.4215    -0.5960 C.3     
  33 C33            6.0875     2.0921     0.8976 C.3     
  34 H34           -0.6798    -3.7895     0.5371 H       
  35 H35            0.7654    -5.3169     1.8734 H       
  36 H36            4.5309    -2.5434     0.3110 H       
  37 H37            2.2175    -1.8390    -0.1475 H       
  38 H38            2.6417     1.0087     0.2267 H       
  39 H39           -1.2565     2.7914     0.5113 H       
  40 H40           -0.1713     4.9938     0.6070 H       
  41 H41           -1.8666     1.9506    -0.8362 H       
  42 H42           -3.0219     0.6208    -1.0913 H       
  43 H43           -4.3316     3.6521     2.4186 H       
  44 H44           -5.8437     3.0389     1.7074 H       
  45 H45           -4.8206     1.9619     2.6879 H       
  46 H46           -5.2092     2.3199    -1.0031 H       
  47 H47           -4.8485     3.9529    -0.3936 H       
  48 H48           -3.5689     2.9902    -1.1707 H       
  49 H49            4.2985     4.2017     0.4503 H       
  50 H50            4.2770     1.2280    -0.1248 H       
  51 H51            6.4996     1.6515    -1.2715 H       
  52 H52            6.3597     3.4481    -0.8790 H       
  53 H53            6.2942     2.9020     1.5972 H       
  54 H54            6.4342     1.1054     1.2047 H       
@<TRIPOS>BOND
   1    1    2 1
   2    1    5 1
   3    1   23 1
   4    2    3 2
   5    3    4 1
   6    3    6 1
   7    4    5 2
   8    5   19 1
   9    6    7 1
  10    6   34 1
  11    7    8 ar
  12    7   12 ar
  13    8    9 ar
  14    8   35 1
  15    9   10 ar
  16    9   13 1
  17   10   11 ar
  18   10   24 1
  19   11   12 ar
  20   11   36 1
  21   12   37 1
  22   13   14 1
  23   13   15 1
  24   13   16 1
  25   17   18 ar
  26   17   22 ar
  27   17   30 1
  28   18   19 ar
  29   18   38 1
  30   19   20 ar
  31   20   21 ar
  32   20   39 1
  33   21   22 ar
  34   21   40 1
  35   23   25 1
  36   23   41 1
  37   23   42 1
  38   25   26 am
  39   25   27 2
  40   26   28 1
  41   26   29 1
  42   28   43 1
  43   28   44 1
  44   28   45 1
  45   29   46 1
  46   29   47 1
  47   29   48 1
  48   30   31 1
  49   30   49 1
  50   31   32 1
  51   31   33 1
  52   31   50 1
  53   32   33 1
  54   32   51 1
  55   32   52 1
  56   33   53 1
  57   33   54 1

#	End of record

