#	Name: ASD05313106
#	Creating user name:	WinNT
#	Creation time:	15. 06. 2019 20:58

#	Modifying user name:	WinNT
#	Modification time:	15. 06. 2019 20:58

#	Program:	/corina/corina34_cracker 3.40 0067  02.08.2006

@<TRIPOS>MOLECULE
ASD05313106
  39   42    0    0    0
SMALL
NO_CHARGES


@<TRIPOS>ATOM
   1 C1            -0.2486     1.0355     1.0396 C.2     
   2 C2            -0.0385    -0.4412     0.8051 C.3     
   3 N3             0.7673     1.9435     1.0946 N.pl3   
   4 N4             1.3693    -0.6157     0.4001 N.am    
   5 C5             2.4009     0.1302     1.1365 C.3     
   6 C6             2.1858     1.6338     0.9256 C.3     
   7 N7            -1.1181     2.9320     1.3980 N.2     
   8 N8            -1.3609     1.6779     1.2268 N.2     
   9 C9             0.1798     3.1489     1.3278 C.2     
  10 C10            0.8660     4.4508     1.4766 C.ar    
  11 C11            2.1740     4.6092     1.0171 C.ar    
  12 C12            2.8092     5.8254     1.1578 C.ar    
  13 C13            2.1506     6.8888     1.7543 C.ar    
  14 C14            0.8515     6.7367     2.2124 C.ar    
  15 C15            0.2055     5.5263     2.0717 C.ar    
  16 F16            2.7774     8.0779     1.8902 F       
  17 C17            1.7009    -1.4363    -0.6163 C.2     
  18 O18            2.8525    -1.4918    -1.0018 O.2     
  19 C19            0.6651    -2.2683    -1.2619 C.ar    
  20 C20            0.5880    -2.3368    -2.6558 C.ar    
  21 C21           -0.3826    -3.1164    -3.2524 C.ar    
  22 C22           -1.2779    -3.8288    -2.4726 C.ar    
  23 C23           -1.2060    -3.7644    -1.0906 C.ar    
  24 C24           -0.2377    -2.9941    -0.4823 C.ar    
  25 Cl25          -2.4962    -4.8064    -3.2299 Cl      
  26 Cl26           1.7097    -1.4435    -3.6343 Cl      
  27 H27           -0.2330    -0.9952     1.7234 H       
  28 H28           -0.6999    -0.7898     0.0119 H       
  29 H29            2.3292    -0.1023     2.1991 H       
  30 H30            3.3870    -0.1517     0.7674 H       
  31 H31            2.5015     1.9096    -0.0805 H       
  32 H32            2.7701     2.1914     1.6575 H       
  33 H33            2.6882     3.7810     0.5524 H       
  34 H34            3.8216     5.9490     0.8028 H       
  35 H35            0.3428     7.5685     2.6768 H       
  36 H36           -0.8084     5.4100     2.4250 H       
  37 H37           -0.4440    -3.1704    -4.3293 H       
  38 H38           -1.9074    -4.3225    -0.4882 H       
  39 H39           -0.1801    -2.9490     0.5952 H       
@<TRIPOS>BOND
   1    1    2 1
   2    1    3 1
   3    1    8 2
   4    2    4 1
   5    2   27 1
   6    2   28 1
   7    3    6 1
   8    3    9 1
   9    4    5 1
  10    4   17 am
  11    5    6 1
  12    5   29 1
  13    5   30 1
  14    6   31 1
  15    6   32 1
  16    7    8 1
  17    7    9 2
  18    9   10 1
  19   10   11 ar
  20   10   15 ar
  21   11   12 ar
  22   11   33 1
  23   12   13 ar
  24   12   34 1
  25   13   14 ar
  26   13   16 1
  27   14   15 ar
  28   14   35 1
  29   15   36 1
  30   17   18 2
  31   17   19 1
  32   19   20 ar
  33   19   24 ar
  34   20   21 ar
  35   20   26 1
  36   21   22 ar
  37   21   37 1
  38   22   23 ar
  39   22   25 1
  40   23   24 ar
  41   23   38 1
  42   24   39 1

#	End of record

