#	Name: ASD01903245
#	Creating user name:	WinNT
#	Creation time:	15. 06. 2019 19:54

#	Modifying user name:	WinNT
#	Modification time:	15. 06. 2019 19:54

#	Program:	/corina/corina34_cracker 3.40 0067  02.08.2006

@<TRIPOS>MOLECULE
ASD01903245
  36   38    0    0    0
SMALL
NO_CHARGES


@<TRIPOS>ATOM
   1 S1            -0.5631     1.1460     0.6250 S.3     
   2 C2            -0.2915    -0.5408     0.5814 C.2     
   3 N3             0.9611    -0.7908     0.3660 N.2     
   4 C4             1.7660     0.2550     0.2253 C.2     
   5 C5             1.1476     1.4445     0.3297 C.2     
   6 N6            -1.2737    -1.5060     0.7528 N.pl3   
   7 C7            -2.5873    -1.1255     0.9784 C.ar    
   8 C8             3.2238     0.1229    -0.0256 C.2     
   9 C9             3.9626    -1.0819    -0.0443 C.2     
  10 N10            5.2139    -0.7854    -0.2993 N.2     
  11 N11            5.3190     0.6025    -0.4509 N.pl3   
  12 C12            4.0921     1.1411    -0.2858 C.2     
  13 N13           -3.5125    -2.0600     1.1400 N.ar    
  14 C14           -4.7751    -1.7309     1.3569 C.ar    
  15 C15           -5.1243    -0.3907     1.4141 C.ar    
  16 C16           -4.1313     0.5607     1.2408 C.ar    
  17 N17           -2.8868     0.1639     1.0327 N.ar    
  18 N18            3.4491    -2.3649     0.1720 N.3     
  19 C19            3.6331    -3.2124    -1.0137 C.3     
  20 C20            4.0559    -2.9815     1.3592 C.3     
  21 C21            3.3012    -4.2657     1.7090 C.3     
  22 H22            1.6175     2.4133     0.2466 H       
  23 H23           -1.0410    -2.4469     0.7148 H       
  24 H24            6.1332     1.0927    -0.6452 H       
  25 H25            3.8444     2.1908    -0.3426 H       
  26 H26           -5.5249    -2.4972     1.4875 H       
  27 H27           -6.1479    -0.0943     1.5895 H       
  28 H28           -4.3700     1.6133     1.2796 H       
  29 H29            4.6973    -3.3831    -1.1766 H       
  30 H30            3.1314    -4.1676    -0.8590 H       
  31 H31            3.2073    -2.7153    -1.8853 H       
  32 H32            5.0995    -3.2184     1.1523 H       
  33 H33            4.0001    -2.2875     2.1978 H       
  34 H34            2.2575    -4.0289     1.9158 H       
  35 H35            3.3569    -4.9598     0.8704 H       
  36 H36            3.7514    -4.7232     2.5899 H       
@<TRIPOS>BOND
   1    1    2 1
   2    1    5 1
   3    2    3 2
   4    2    6 1
   5    3    4 1
   6    4    5 2
   7    4    8 1
   8    5   22 1
   9    6    7 1
  10    6   23 1
  11    7   13 ar
  12    7   17 ar
  13    8    9 1
  14    8   12 2
  15    9   10 2
  16    9   18 1
  17   10   11 1
  18   11   12 1
  19   11   24 1
  20   12   25 1
  21   13   14 ar
  22   14   15 ar
  23   14   26 1
  24   15   16 ar
  25   15   27 1
  26   16   17 ar
  27   16   28 1
  28   18   19 1
  29   18   20 1
  30   19   29 1
  31   19   30 1
  32   19   31 1
  33   20   21 1
  34   20   32 1
  35   20   33 1
  36   21   34 1
  37   21   35 1
  38   21   36 1

#	End of record

