#	Name: ASD00170458
#	Creating user name:	WinNT
#	Creation time:	15. 06. 2019 18:32

#	Modifying user name:	WinNT
#	Modification time:	15. 06. 2019 18:32

#	Program:	/corina/corina34_cracker 3.40 0067  02.08.2006

@<TRIPOS>MOLECULE
ASD00170458
  98  104    0    0    0
SMALL
NO_CHARGES


@<TRIPOS>ATOM
   1 O1             0.6585     3.1987    -1.4013 O.3     
   2 C2             0.8546     1.7837    -1.4382 C.3     
   3 C3            -0.4962     1.0779    -1.3032 C.3     
   4 C4            -0.2974    -0.4515    -1.2148 C.3     
   5 C5            -1.4895    -1.0315    -2.0084 C.3     
   6 C6            -2.2675     0.2161    -2.4824 C.3     
   7 O7            -1.2895     1.2788    -2.4933 O.3     
   8 O8            -0.3438    -0.8846     0.1462 O.3     
   9 O9            -2.3085    -1.8405    -1.1618 O.3     
  10 N10           -2.8029     0.0020    -3.8292 N.pl3   
  11 C11           -3.9862    -0.6172    -4.1434 C.ar    
  12 C12           -4.0777    -0.5895    -5.5450 C.ar    
  13 N13           -2.9663     0.0336    -6.0054 N.2     
  14 C14           -2.2197     0.3867    -4.9996 C.2     
  15 N15           -4.9651    -1.1814    -3.4432 N.ar    
  16 C16           -6.0072    -1.7079    -4.0508 C.ar    
  17 N17           -6.1372    -1.7061    -5.3651 N.ar    
  18 C18           -5.2094    -1.1651    -6.1476 C.ar    
  19 N19           -5.3544    -1.1681    -7.5239 N.pl3   
  20 C20           -6.5412    -1.7725    -8.1341 C.3     
  21 C21           -6.4542    -1.6429    -9.6561 C.3     
  22 C22           -7.6937    -2.2741   -10.2934 C.3     
  23 C23           -7.6066    -2.1445   -11.8154 C.3     
  24 C24           -8.8462    -2.7757   -12.4527 C.3     
  25 C25           -8.7591    -2.6461   -13.9748 C.3     
  26 N26           -9.9460    -3.2505   -14.5850 N.am    
  27 C27          -10.0871    -3.2534   -15.9253 C.2     
  28 C28          -11.2820    -3.8618   -16.5397 C.ar    
  29 O29           -9.2294    -2.7544   -16.6282 O.2     
  30 C30          -11.4283    -3.8647   -17.9310 C.ar    
  31 C31          -12.5339    -4.4277   -18.5000 C.ar    
  32 C32          -13.5215    -5.0022   -17.6911 C.ar    
  33 C33          -13.3746    -4.9991   -16.2989 C.ar    
  34 C34          -12.2659    -4.4409   -15.7312 C.ar    
  35 C35          -14.7144    -5.6091   -18.3043 C.2     
  36 C36          -14.6906    -6.4862   -19.3493 C.2     
  37 C37          -16.0194    -6.9159   -19.7395 C.2     
  38 C38          -17.0121    -6.3482   -18.9744 C.2     
  39 S39          -16.3645    -5.3114   -17.7887 S.3     
  40 N40          -18.3568    -6.5920   -19.1420 N.pl3   
  41 C41          -16.2773    -7.8539   -20.8312 C.2     
  42 C42          -13.4491    -6.9466   -20.0100 C.ar    
  43 C43          -12.5425    -7.7489   -19.3165 C.ar    
  44 C44          -11.3866    -8.1748   -19.9383 C.ar    
  45 C45          -11.1257    -7.8075   -21.2463 C.ar    
  46 C46          -12.0208    -7.0119   -21.9396 C.ar    
  47 C47          -13.1829    -6.5847   -21.3314 C.ar    
  48 O48          -16.5349    -7.4355   -21.9453 O.2     
  49 C49          -16.2252    -9.3112   -20.5822 C.ar    
  50 C50          -16.3601   -10.2087   -21.6426 C.ar    
  51 C51          -16.3101   -11.5665   -21.4036 C.ar    
  52 C52          -16.1271   -12.0391   -20.1161 C.ar    
  53 C53          -15.9931   -11.1547   -19.0605 C.ar    
  54 C54          -16.0350    -9.7945   -19.2867 C.ar    
  55 C55          -10.4062    -9.0415   -19.1908 C.3     
  56 F56          -10.7302   -10.3882   -19.3871 F       
  57 F57           -9.1129    -8.7990   -19.6659 F       
  58 F58          -10.4654    -8.7418   -17.8256 F       
  59 H59            1.4747     3.7110    -1.4818 H       
  60 H60            1.3168     1.5055    -2.3853 H       
  61 H61            1.5043     1.4853    -0.6154 H       
  62 H62           -1.0280     1.4429    -0.4246 H       
  63 H63            0.6463    -0.7413    -1.6769 H       
  64 H64           -1.1352    -1.6081    -2.8629 H       
  65 H65           -3.0727     0.4486    -1.7855 H       
  66 H66            0.3472    -0.5023     0.7043 H       
  67 H67           -1.8515    -2.6060    -0.7873 H       
  68 H68           -1.2738     0.9016    -5.0808 H       
  69 H69           -6.7850    -2.1585    -3.4522 H       
  70 H70           -4.6702    -0.7701    -8.0845 H       
  71 H71           -6.5931    -2.8266    -7.8616 H       
  72 H72           -7.4344    -1.2604    -7.7764 H       
  73 H73           -6.4023    -0.5888    -9.9287 H       
  74 H74           -5.5610    -2.1551   -10.0139 H       
  75 H75           -7.7455    -3.3282   -10.0209 H       
  76 H76           -8.5869    -1.7620    -9.9357 H       
  77 H77           -7.5548    -1.0904   -12.0880 H       
  78 H78           -6.7134    -2.6567   -12.1732 H       
  79 H79           -8.8980    -3.8298   -12.1802 H       
  80 H80           -9.7394    -2.2636   -12.0950 H       
  81 H81           -8.7073    -1.5920   -14.2473 H       
  82 H82           -7.8659    -3.1583   -14.3325 H       
  83 H83          -10.6302    -3.6485   -14.0244 H       
  84 H84          -10.6665    -3.4211   -18.5549 H       
  85 H85          -12.6469    -4.4295   -19.5741 H       
  86 H86          -14.1364    -5.4418   -15.6744 H       
  87 H87          -12.1523    -4.4387   -14.6572 H       
  88 H88          -18.6532    -7.2536   -19.7865 H       
  89 H89          -19.0079    -6.1020   -18.6157 H       
  90 H90          -12.7447    -8.0358   -18.2951 H       
  91 H91          -10.2192    -8.1428   -21.7283 H       
  92 H92          -11.8113    -6.7286   -22.9605 H       
  93 H93          -13.8807    -5.9638   -21.8736 H       
  94 H94          -16.5037    -9.8411   -22.6478 H       
  95 H95          -16.4144   -12.2620   -22.2232 H       
  96 H96          -16.0890   -13.1030   -19.9343 H       
  97 H97          -15.8509   -11.5301   -18.0578 H       
  98 H98          -15.9304    -9.1052   -18.4619 H       
@<TRIPOS>BOND
   1    1    2 1
   2    1   59 1
   3    2    3 1
   4    2   60 1
   5    2   61 1
   6    3    4 1
   7    3    7 1
   8    3   62 1
   9    4    5 1
  10    4    8 1
  11    4   63 1
  12    5    6 1
  13    5    9 1
  14    5   64 1
  15    6    7 1
  16    6   10 1
  17    6   65 1
  18    8   66 1
  19    9   67 1
  20   10   11 1
  21   10   14 1
  22   11   12 ar
  23   11   15 ar
  24   12   13 1
  25   12   18 ar
  26   13   14 2
  27   14   68 1
  28   15   16 ar
  29   16   17 ar
  30   16   69 1
  31   17   18 ar
  32   18   19 1
  33   19   20 1
  34   19   70 1
  35   20   21 1
  36   20   71 1
  37   20   72 1
  38   21   22 1
  39   21   73 1
  40   21   74 1
  41   22   23 1
  42   22   75 1
  43   22   76 1
  44   23   24 1
  45   23   77 1
  46   23   78 1
  47   24   25 1
  48   24   79 1
  49   24   80 1
  50   25   26 1
  51   25   81 1
  52   25   82 1
  53   26   27 am
  54   26   83 1
  55   27   28 1
  56   27   29 2
  57   28   30 ar
  58   28   34 ar
  59   30   31 ar
  60   30   84 1
  61   31   32 ar
  62   31   85 1
  63   32   33 ar
  64   32   35 1
  65   33   34 ar
  66   33   86 1
  67   34   87 1
  68   35   36 2
  69   35   39 1
  70   36   37 1
  71   36   42 1
  72   37   38 2
  73   37   41 1
  74   38   39 1
  75   38   40 1
  76   40   88 1
  77   40   89 1
  78   41   48 2
  79   41   49 1
  80   42   43 ar
  81   42   47 ar
  82   43   44 ar
  83   43   90 1
  84   44   55 1
  85   44   45 ar
  86   45   46 ar
  87   45   91 1
  88   46   47 ar
  89   46   92 1
  90   47   93 1
  91   49   50 ar
  92   49   54 ar
  93   50   51 ar
  94   50   94 1
  95   51   52 ar
  96   51   95 1
  97   52   53 ar
  98   52   96 1
  99   53   54 ar
 100   53   97 1
 101   54   98 1
 102   55   56 1
 103   55   57 1
 104   55   58 1

#	End of record

