#	Name: ASD09740183
#	Creating user name:	WinNT
#	Creation time:	15. 06. 2019 21:22

#	Modifying user name:	WinNT
#	Modification time:	15. 06. 2019 21:22

#	Program:	/corina/corina34_cracker 3.40 0067  02.08.2006

@<TRIPOS>MOLECULE
ASD09740183
  33   35    0    0    0
SMALL
NO_CHARGES


@<TRIPOS>ATOM
   1 O1            -0.0144     1.2086     0.0087 O.3     
   2 N2             0.0021    -0.0041     0.0020 N.2     
   3 C3             1.2407     1.6828    -0.0008 C.2     
   4 N4             2.0451     0.6377    -0.0140 N.2     
   5 C5             1.2351    -0.4415    -0.0121 C.2     
   6 C6             1.6638    -1.8627    -0.0234 C.ar    
   7 C7             1.6452     3.1063     0.0026 C.ar    
   8 C8             3.0195    -2.1833    -0.0376 C.ar    
   9 C9             0.7120    -2.8792    -0.0140 C.ar    
  10 C10            1.1182    -4.2034    -0.0241 C.ar    
  11 C11            2.4710    -4.5144    -0.0431 C.ar    
  12 C12            3.4159    -3.5058    -0.0476 C.ar    
  13 C13            0.6873     4.1258     0.0173 C.ar    
  14 C14            1.1090     5.4403     0.0198 C.ar    
  15 N15            2.3932     5.7395     0.0087 N.ar    
  16 C16            3.3284     4.8098    -0.0053 C.ar    
  17 C17            2.9960     3.4700    -0.0030 C.ar    
  18 C18            2.9105    -5.9559    -0.0531 C.3     
  19 O19            0.1923    -5.1982    -0.0150 O.3     
  20 C20           -1.1815    -4.8056     0.0050 C.3     
  21 H21            3.7603    -1.3974    -0.0411 H       
  22 H22           -0.3401    -2.6357     0.0015 H       
  23 H23            4.4672    -3.7528    -0.0624 H       
  24 H24           -0.3662     3.8881     0.0261 H       
  25 H25            0.3771     6.2344     0.0308 H       
  26 H26            4.3685     5.1006    -0.0144 H       
  27 H27            3.7672     2.7139    -0.0142 H       
  28 H28            3.0027    -6.3005    -1.0831 H       
  29 H29            3.8746    -6.0452     0.4476 H       
  30 H30            2.1722    -6.5645     0.4689 H       
  31 H31           -1.8132    -5.6940     0.0105 H       
  32 H32           -1.3776    -4.2149     0.8998 H       
  33 H33           -1.4018    -4.2087    -0.8800 H       
@<TRIPOS>BOND
   1    1    2 1
   2    1    3 1
   3    2    5 2
   4    3    4 2
   5    3    7 1
   6    4    5 1
   7    5    6 1
   8    6    8 ar
   9    6    9 ar
  10    7   13 ar
  11    7   17 ar
  12    8   12 ar
  13    8   21 1
  14    9   10 ar
  15    9   22 1
  16   10   11 ar
  17   10   19 1
  18   11   12 ar
  19   11   18 1
  20   12   23 1
  21   13   14 ar
  22   13   24 1
  23   14   15 ar
  24   14   25 1
  25   15   16 ar
  26   16   17 ar
  27   16   26 1
  28   17   27 1
  29   18   28 1
  30   18   29 1
  31   18   30 1
  32   19   20 1
  33   20   31 1
  34   20   32 1
  35   20   33 1

#	End of record

