#	Name: ASD05430379
#	Creating user name:	WinNT
#	Creation time:	15. 06. 2019 21:00

#	Modifying user name:	WinNT
#	Modification time:	15. 06. 2019 21:00

#	Program:	/corina/corina34_cracker 3.40 0067  02.08.2006

@<TRIPOS>MOLECULE
ASD05430379
  63   67    0    0    0
SMALL
NO_CHARGES


@<TRIPOS>ATOM
   1 C1            -0.2492     1.4485     1.5165 C.ar    
   2 C2             0.0031     0.2358     0.8760 C.ar    
   3 C3            -0.9603    -0.3319     0.0520 C.ar    
   4 C4            -2.1698     0.3005    -0.1364 C.ar    
   5 C5            -2.4301     1.5168     0.5032 C.ar    
   6 C6            -1.4624     2.0856     1.3367 C.ar    
   7 C7            -4.8524     1.4714     0.2033 C.2     
   8 C8            -3.7216     2.1943     0.3027 C.2     
   9 N9            -7.2471     1.6964     0.5772 N.pl3   
  10 C10           -6.1323     2.1096    -0.1512 C.2     
  11 O11            0.6960     2.0012     2.3224 O.3     
  12 C12            0.3699     3.2447     2.9465 C.3     
  13 C13            1.4165    -1.7266     1.4042 C.2     
  14 N14            1.2319    -0.4115     1.0637 N.pl3   
  15 C15            2.7461    -1.9273     1.4787 C.2     
  16 N16            3.3609    -0.7701     1.1925 N.2     
  17 C17            2.4648     0.1454     0.9422 C.2     
  18 C18            3.4256    -3.2272     1.8243 C.3     
  19 C19           -7.1026     0.5342     1.4532 C.3     
  20 C20           -6.2542    -0.5270     0.7419 C.3     
  21 C21           -4.8463    -0.0196     0.4456 C.3     
  22 C22           -8.5061     2.4221     0.4302 C.3     
  23 C23           -8.6463     2.8541    -1.0338 C.3     
  24 O24           -7.4797     3.5557    -1.4511 O.3     
  25 N25           -6.2403     2.9882    -1.0912 N.2     
  26 C26           -9.6565     1.5245     0.8071 C.ar    
  27 C27          -10.3721     1.7687     1.9642 C.ar    
  28 C28          -11.7695    -0.1247     1.4996 C.ar    
  29 C29          -11.0545    -0.3642     0.3367 C.ar    
  30 C30           -9.9981     0.4615    -0.0077 C.ar    
  31 F31          -12.8007    -0.9294     1.8375 F       
  32 F32          -11.3880    -1.4030    -0.4601 F       
  33 C33          -11.4289     0.9451     2.3123 C.ar    
  34 F34          -12.1275     1.1837     3.4438 F       
  35 C35           -8.4976     3.6570     1.3335 C.3     
  36 C36           -6.1613    -1.7689     1.6306 C.3     
  37 H37           -0.7606    -1.2710    -0.4425 H       
  38 H38           -2.9168    -0.1428    -0.7782 H       
  39 H39           -1.6594     3.0245     1.8328 H       
  40 H40           -3.7616     3.2715     0.2354 H       
  41 H41            1.2084     3.5741     3.5601 H       
  42 H42            0.1641     3.9926     2.1808 H       
  43 H43           -0.5115     3.1158     3.5747 H       
  44 H44            0.6439    -2.4598     1.5829 H       
  45 H45            2.6693     1.1734     0.6818 H       
  46 H46            3.6067    -3.7962     0.9124 H       
  47 H47            4.3751    -3.0207     2.3182 H       
  48 H48            2.7867    -3.8048     2.4922 H       
  49 H49           -6.6117     0.8346     2.3789 H       
  50 H50           -8.0866     0.1232     1.6784 H       
  51 H51           -6.7376    -0.7975    -0.1968 H       
  52 H52           -4.4619    -0.5253    -0.4402 H       
  53 H53           -4.1990    -0.2424     1.2938 H       
  54 H54           -8.7807     1.9719    -1.6597 H       
  55 H55           -9.5152     3.5040    -1.1372 H       
  56 H56          -10.1064     2.6024     2.5972 H       
  57 H57           -9.4408     0.2752    -0.9138 H       
  58 H58           -7.6702     4.3080     1.0512 H       
  59 H59           -9.4385     4.1958     1.2211 H       
  60 H60           -8.3782     3.3470     2.3716 H       
  61 H61           -7.1620    -2.1605     1.8134 H       
  62 H62           -5.5594    -2.5285     1.1317 H       
  63 H63           -5.6964    -1.5026     2.5798 H       
@<TRIPOS>BOND
   1    1    2 ar
   2    1   11 1
   3    1    6 ar
   4    2    3 ar
   5    2   14 1
   6    3    4 ar
   7    3   37 1
   8    4    5 ar
   9    4   38 1
  10    5    6 ar
  11    5    8 1
  12    6   39 1
  13    7    8 2
  14    7   21 1
  15    7   10 1
  16    8   40 1
  17    9   10 1
  18    9   22 1
  19    9   19 1
  20   10   25 2
  21   11   12 1
  22   12   41 1
  23   12   42 1
  24   12   43 1
  25   13   14 1
  26   13   15 2
  27   13   44 1
  28   14   17 1
  29   15   16 1
  30   15   18 1
  31   16   17 2
  32   17   45 1
  33   18   46 1
  34   18   47 1
  35   18   48 1
  36   19   20 1
  37   19   49 1
  38   19   50 1
  39   20   36 1
  40   20   21 1
  41   20   51 1
  42   21   52 1
  43   21   53 1
  44   22   23 1
  45   22   26 1
  46   22   35 1
  47   23   24 1
  48   23   54 1
  49   23   55 1
  50   24   25 1
  51   26   27 ar
  52   26   30 ar
  53   27   33 ar
  54   27   56 1
  55   28   29 ar
  56   28   31 1
  57   28   33 ar
  58   29   30 ar
  59   29   32 1
  60   30   57 1
  61   33   34 1
  62   35   58 1
  63   35   59 1
  64   35   60 1
  65   36   61 1
  66   36   62 1
  67   36   63 1

#	End of record

