#	Name: ASD01881619
#	Creating user name:	WinNT
#	Creation time:	15. 06. 2019 19:43

#	Modifying user name:	WinNT
#	Modification time:	15. 06. 2019 19:43

#	Program:	/corina/corina34_cracker 3.40 0067  02.08.2006

@<TRIPOS>MOLECULE
ASD01881619
  58   61    0    0    0
SMALL
NO_CHARGES


@<TRIPOS>ATOM
   1 O1            -0.0161     1.3335     0.0094 O.3     
   2 C2             0.0021    -0.0041     0.0020 C.2     
   3 N3             1.2348    -0.5293    -0.0126 N.am    
   4 C4             2.2183     0.5645    -0.0161 C.3     
   5 C5             1.3508     1.8380    -0.0010 C.3     
   6 O6            -1.0070    -0.6809     0.0087 O.2     
   7 C7             1.6043     2.6745    -1.2567 C.3     
   8 C8             1.5514    -1.9597    -0.0233 C.3     
   9 C9             1.6469    -2.4423    -1.4477 C.ar    
  10 C10            2.8618    -2.4038    -2.1082 C.ar    
  11 C11            2.9553    -2.8444    -3.4126 C.ar    
  12 C12            1.8225    -3.3291    -4.0646 C.ar    
  13 C13            0.6010    -3.3656    -3.3939 C.ar    
  14 C14            0.5207    -2.9276    -2.0878 C.ar    
  15 C15            1.8864    -5.2191    -9.4523 C.2     
  16 N16            0.6004    -5.5694    -9.6250 N.am    
  17 C17           -0.1343    -5.2959    -8.3847 C.3     
  18 C18            0.8717    -4.7267    -7.4154 C.ar    
  19 C19            0.7808    -4.2887    -6.1174 C.ar    
  20 C20            1.9165    -3.8036    -5.4663 C.ar    
  21 C21            3.1399    -3.7654    -6.1360 C.ar    
  22 C22            3.2308    -4.2045    -7.4372 C.ar    
  23 C23            2.0952    -4.6907    -8.0915 C.ar    
  24 O24            2.7549    -5.3272   -10.2961 O.2     
  25 C25            0.0264    -6.1311   -10.8502 C.3     
  26 C26            0.1255    -7.6573   -10.8067 C.3     
  27 C27           -0.4739    -8.2440   -12.0863 C.3     
  28 C28            1.5946    -8.0701   -10.6959 C.3     
  29 C29           -0.6451    -8.1840    -9.5944 C.3     
  30 O30           -0.3814    -9.6694   -12.0457 O.3     
  31 H31            2.8457     0.5181     0.8740 H       
  32 H32            2.8286     0.5277    -0.9184 H       
  33 H33            1.5485     2.4243     0.8964 H       
  34 H34            0.9328     3.5332    -1.2629 H       
  35 H35            2.6376     3.0213    -1.2597 H       
  36 H36            1.4229     2.0651    -2.1420 H       
  37 H37            2.5035    -2.1248     0.4810 H       
  38 H38            0.7656    -2.5096     0.4948 H       
  39 H39            3.7387    -2.0277    -1.6022 H       
  40 H40            3.9042    -2.8135    -3.9274 H       
  41 H41           -0.2799    -3.7402    -3.8941 H       
  42 H42           -0.4242    -2.9598    -1.5656 H       
  43 H43           -0.9268    -4.5710    -8.5709 H       
  44 H44           -0.5561    -6.2192    -7.9878 H       
  45 H45           -0.1672    -4.3196    -5.6010 H       
  46 H46            4.0181    -3.3897    -5.6320 H       
  47 H47            4.1793    -4.1732    -7.9528 H       
  48 H48           -1.0202    -5.8371   -10.9292 H       
  49 H49            0.5754    -5.7559   -11.7139 H       
  50 H50           -1.5206    -7.9499   -12.1653 H       
  51 H51            0.0751    -7.8688   -12.9500 H       
  52 H52            2.0216    -7.6521    -9.7842 H       
  53 H53            1.6651    -9.1574   -10.6648 H       
  54 H54            2.1436    -7.6949   -11.5595 H       
  55 H55           -1.6918    -7.8900    -9.6734 H       
  56 H56           -0.5746    -9.2713    -9.5634 H       
  57 H57           -0.2181    -7.7661    -8.6828 H       
  58 H58           -0.7433   -10.1095   -12.8270 H       
@<TRIPOS>BOND
   1    1    2 1
   2    1    5 1
   3    2    3 am
   4    2    6 2
   5    3    4 1
   6    3    8 1
   7    4    5 1
   8    4   31 1
   9    4   32 1
  10    5    7 1
  11    5   33 1
  12    7   34 1
  13    7   35 1
  14    7   36 1
  15    8    9 1
  16    8   37 1
  17    8   38 1
  18    9   10 ar
  19    9   14 ar
  20   10   11 ar
  21   10   39 1
  22   11   12 ar
  23   11   40 1
  24   12   13 ar
  25   12   20 1
  26   13   14 ar
  27   13   41 1
  28   14   42 1
  29   15   16 am
  30   15   23 1
  31   15   24 2
  32   16   17 1
  33   16   25 1
  34   17   18 1
  35   17   43 1
  36   17   44 1
  37   18   19 ar
  38   18   23 ar
  39   19   20 ar
  40   19   45 1
  41   20   21 ar
  42   21   22 ar
  43   21   46 1
  44   22   23 ar
  45   22   47 1
  46   25   26 1
  47   25   48 1
  48   25   49 1
  49   26   27 1
  50   26   28 1
  51   26   29 1
  52   27   30 1
  53   27   50 1
  54   27   51 1
  55   28   52 1
  56   28   53 1
  57   28   54 1
  58   29   55 1
  59   29   56 1
  60   29   57 1
  61   30   58 1

#	End of record

