#	Name: ASD01811446
#	Creating user name:	WinNT
#	Creation time:	15. 06. 2019 19:26

#	Modifying user name:	WinNT
#	Modification time:	15. 06. 2019 19:26

#	Program:	/corina/corina34_cracker 3.40 0067  02.08.2006

@<TRIPOS>MOLECULE
ASD01811446
  67   70    0    0    0
SMALL
NO_CHARGES


@<TRIPOS>ATOM
   1 C1            -0.0302     1.4719    -0.0341 C.2     
   2 C2            -0.0137    -0.0029    -0.0589 C.ar    
   3 C3             1.2018    -0.6999    -0.1417 C.ar    
   4 C4             1.1698    -2.0679    -0.1615 C.ar    
   5 C5            -0.0584    -2.7243    -0.0994 C.ar    
   6 N6            -1.1926    -2.0418    -0.0217 N.ar    
   7 C7            -1.2062    -0.7254     0.0054 C.ar    
   8 O8             1.0142     2.0926    -0.0855 O.2     
   9 N9            -1.2032     2.1315     0.0400 N.am    
  10 N10           -0.0945    -4.1083    -0.1196 N.pl3   
  11 C11            1.1524    -4.8724    -0.2058 C.3     
  12 C12            0.8342    -6.3690    -0.2112 C.3     
  13 C13            0.0556    -6.7202    -1.4806 C.3     
  14 C14            2.1385    -7.1679    -0.1754 C.3     
  15 N15           -2.3247     4.3134     0.1359 N.pl3   
  16 N16           -1.9068     5.6502     0.1359 N.2     
  17 C17           -0.5900     5.6717     0.0657 C.2     
  18 C18           -0.1325     4.3388     0.0188 C.2     
  19 C19           -1.2189     3.5255     0.0634 C.2     
  20 C20           -3.7111     3.8455     0.2079 C.3     
  21 C21            0.2577     6.8812     0.0400 C.2     
  22 O22            1.4673     6.7771     0.1019 O.2     
  23 N23           -0.3100     8.1001    -0.0519 N.am    
  24 C24            0.5065     9.3165     0.0594 C.3     
  25 C25           -0.0939    10.2157     1.1447 C.3     
  26 C26           -1.5685    10.4754     0.8282 C.3     
  27 C27           -2.3321     9.1491     0.8229 C.3     
  28 C28           -1.7562     8.2377    -0.2716 C.3     
  29 C29           -2.1537    11.3874     1.8755 C.ar    
  30 C30           -2.6841    12.6105     1.5049 C.ar    
  31 C31           -3.2213    13.4502     2.4584 C.ar    
  32 C32           -3.2295    13.0633     3.8000 C.ar    
  33 C33           -2.6930    11.8274     4.1669 C.ar    
  34 C34           -2.1633    10.9954     3.2024 C.ar    
  35 C35           -3.7852    13.9301     4.7952 C.1     
  36 N36           -4.2260    14.6178     5.5847 N.1     
  37 H37            2.1409    -0.1687    -0.1890 H       
  38 H38            2.0876    -2.6337    -0.2249 H       
  39 H39           -2.1476    -0.2005     0.0734 H       
  40 H40           -2.0366     1.6365     0.0769 H       
  41 H41           -0.9455    -4.5719    -0.0768 H       
  42 H42            1.6771    -4.6093    -1.1243 H       
  43 H43            1.7822    -4.6380     0.6524 H       
  44 H44            0.2328    -6.6157     0.6638 H       
  45 H45            0.6570    -6.4735    -2.3556 H       
  46 H46           -0.1711    -7.7864    -1.4844 H       
  47 H47           -0.8736    -6.1511    -1.5061 H       
  48 H48            2.6932    -6.9176     0.7290 H       
  49 H49            1.9118    -8.2340    -0.1792 H       
  50 H50            2.7399    -6.9212    -1.0503 H       
  51 H51            0.8981     4.0215    -0.0418 H       
  52 H52           -4.1144     3.7477    -0.8000 H       
  53 H53           -3.7424     2.8772     0.7073 H       
  54 H54           -4.3082     4.5637     0.7700 H       
  55 H55            1.5273     9.0478     0.3310 H       
  56 H56            0.5069     9.8449    -0.8939 H       
  57 H57           -0.0110     9.7222     2.1130 H       
  58 H58            0.4448    11.1630     1.1713 H       
  59 H59           -1.6522    10.9465    -0.1511 H       
  60 H60           -2.2281     8.6656     1.7943 H       
  61 H61           -3.3865     9.3371     0.6206 H       
  62 H62           -1.9366     8.6799    -1.2514 H       
  63 H63           -2.2288     7.2570    -0.2184 H       
  64 H64           -2.6771    12.9085     0.4669 H       
  65 H65           -3.6344    14.4049     2.1679 H       
  66 H66           -2.6961    11.5220     5.2028 H       
  67 H67           -1.7517    10.0375     3.4842 H       
@<TRIPOS>BOND
   1    1    2 1
   2    1    8 2
   3    1    9 am
   4    2    3 ar
   5    2    7 ar
   6    3    4 ar
   7    3   37 1
   8    4    5 ar
   9    4   38 1
  10    5    6 ar
  11    5   10 1
  12    6    7 ar
  13    7   39 1
  14    9   19 1
  15    9   40 1
  16   10   11 1
  17   10   41 1
  18   11   12 1
  19   11   42 1
  20   11   43 1
  21   12   13 1
  22   12   14 1
  23   12   44 1
  24   13   45 1
  25   13   46 1
  26   13   47 1
  27   14   48 1
  28   14   49 1
  29   14   50 1
  30   15   16 1
  31   15   19 1
  32   15   20 1
  33   16   17 2
  34   17   18 1
  35   17   21 1
  36   18   19 2
  37   18   51 1
  38   20   52 1
  39   20   53 1
  40   20   54 1
  41   21   22 2
  42   21   23 am
  43   23   24 1
  44   23   28 1
  45   24   25 1
  46   24   55 1
  47   24   56 1
  48   25   26 1
  49   25   57 1
  50   25   58 1
  51   26   27 1
  52   26   29 1
  53   26   59 1
  54   27   28 1
  55   27   60 1
  56   27   61 1
  57   28   62 1
  58   28   63 1
  59   29   30 ar
  60   29   34 ar
  61   30   31 ar
  62   30   64 1
  63   31   32 ar
  64   31   65 1
  65   32   33 ar
  66   32   35 1
  67   33   34 ar
  68   33   66 1
  69   34   67 1
  70   35   36 3

#	End of record

