#	Name: ASD06170214
#	Creating user name:	WinNT
#	Creation time:	15. 06. 2019 21:05

#	Modifying user name:	WinNT
#	Modification time:	15. 06. 2019 21:05

#	Program:	/corina/corina34_cracker 3.40 0067  02.08.2006

@<TRIPOS>MOLECULE
ASD06170214
  74   78    0    0    0
SMALL
NO_CHARGES


@<TRIPOS>ATOM
   1 C1             0.1934     1.1244    -0.0873 C.2     
   2 C2             0.3212    -0.2176    -0.5182 C.2     
   3 C3             1.5944    -0.6916    -0.8814 C.2     
   4 C4             2.6906     0.1870    -0.8022 C.2     
   5 C5             2.5082     1.4584    -0.3834 C.2     
   6 N6             1.2793     1.9177    -0.0322 N.am    
   7 C7            -0.8503    -1.0962    -0.5840 C.2     
   8 O8            -0.7588    -2.1948    -1.0998 O.2     
   9 N9            -2.0288    -0.6875    -0.0735 N.am    
  10 O10           -0.8995     1.5626     0.2288 O.2     
  11 N11            1.7647    -1.9885    -1.3055 N.pl3   
  12 C12            3.0646    -2.4260    -1.8205 C.3     
  13 C13            2.9845    -3.9006    -2.2206 C.3     
  14 O14            2.0756    -4.0490    -3.3133 O.3     
  15 C15            1.9271    -5.3959    -3.7669 C.3     
  16 C16           -3.1673    -1.4785    -0.2272 C.ar    
  17 C17           -3.0303    -2.8354    -0.4984 C.ar    
  18 C18           -4.1658    -3.6106    -0.6485 C.ar    
  19 C19           -5.4097    -2.9970    -0.5212 C.ar    
  20 C20           -5.4693    -1.6395    -0.2502 C.ar    
  21 N21           -4.3657    -0.9305    -0.1080 N.ar    
  22 O22           -6.5518    -3.7214    -0.6616 O.3     
  23 N23           -7.8039    -5.9671     2.5633 N.ar    
  24 C24           -6.6851    -5.2843     2.6291 C.ar    
  25 C25           -6.2314    -4.5171     1.5636 C.ar    
  26 C26           -6.9696    -4.4621     0.3944 C.ar    
  27 C27           -8.1725    -5.2012     0.3350 C.ar    
  28 C28           -8.9741    -5.1952    -0.8163 C.ar    
  29 C29          -10.1296    -5.9215    -0.8386 C.ar    
  30 C30          -10.5232    -6.6734     0.2776 C.ar    
  31 C31           -9.7618    -6.6967     1.4104 C.ar    
  32 C32           -8.5672    -5.9596     1.4640 C.ar    
  33 O33          -11.6780    -7.3880     0.2312 O.3     
  34 C34          -12.0265    -8.1343     1.3990 C.3     
  35 O35          -10.9070    -5.9155    -1.9543 O.3     
  36 C36          -10.4521    -5.1297    -3.0577 C.3     
  37 C37            1.1325     3.3050     0.4153 C.3     
  38 C38            1.3124     3.3724     1.9100 C.ar    
  39 C39            2.5702     3.5758     2.4463 C.ar    
  40 C40            2.7352     3.6376     3.8173 C.ar    
  41 C41            1.6424     3.4965     4.6521 C.ar    
  42 C42            0.3845     3.2940     4.1158 C.ar    
  43 C43            0.2189     3.2366     2.7446 C.ar    
  44 H44            3.6778    -0.1552    -1.0757 H       
  45 H45            3.3573     2.1233    -0.3263 H       
  46 H46           -2.0852     0.1567     0.4009 H       
  47 H47            1.0243    -2.6137    -1.2636 H       
  48 H48            3.3306    -1.8271    -2.6915 H       
  49 H49            3.8227    -2.3000    -1.0475 H       
  50 H50            3.9727    -4.2500    -2.5199 H       
  51 H51            2.6327    -4.4885    -1.3729 H       
  52 H52            2.8933    -5.7764    -4.0983 H       
  53 H53            1.5533    -6.0149    -2.9513 H       
  54 H54            1.2214    -5.4239    -4.5971 H       
  55 H55           -2.0497    -3.2783    -0.5910 H       
  56 H56           -4.0898    -4.6670    -0.8598 H       
  57 H57           -6.4303    -1.1568    -0.1505 H       
  58 H58           -6.1008    -5.3198     3.5367 H       
  59 H59           -5.3069    -3.9652     1.6476 H       
  60 H60           -8.6787    -4.6186    -1.6804 H       
  61 H61          -10.0770    -7.2799     2.2630 H       
  62 H62          -12.1358    -7.4555     2.2448 H       
  63 H63          -12.9676    -8.6571     1.2287 H       
  64 H64          -11.2418    -8.8595     1.6142 H       
  65 H65          -11.1625    -5.2127    -3.8802 H       
  66 H66          -10.3707    -4.0867    -2.7519 H       
  67 H67           -9.4762    -5.4903    -3.3827 H       
  68 H68            1.8866     3.9249    -0.0698 H       
  69 H69            0.1392     3.6685     0.1521 H       
  70 H70            3.4240     3.6860     1.7941 H       
  71 H71            3.7180     3.7958     4.2364 H       
  72 H72            1.7715     3.5441     5.7233 H       
  73 H73           -0.4692     3.1835     4.7679 H       
  74 H74           -0.7644     3.0821     2.3254 H       
@<TRIPOS>BOND
   1    1    2 1
   2    1    6 am
   3    1   10 2
   4    2    3 2
   5    2    7 1
   6    3    4 1
   7    3   11 1
   8    4    5 2
   9    4   44 1
  10    5    6 1
  11    5   45 1
  12    6   37 1
  13    7    8 2
  14    7    9 am
  15    9   16 1
  16    9   46 1
  17   11   12 1
  18   11   47 1
  19   12   13 1
  20   12   48 1
  21   12   49 1
  22   13   14 1
  23   13   50 1
  24   13   51 1
  25   14   15 1
  26   15   52 1
  27   15   53 1
  28   15   54 1
  29   16   17 ar
  30   16   21 ar
  31   17   18 ar
  32   17   55 1
  33   18   19 ar
  34   18   56 1
  35   19   20 ar
  36   19   22 1
  37   20   21 ar
  38   20   57 1
  39   22   26 1
  40   23   24 ar
  41   23   32 ar
  42   24   25 ar
  43   24   58 1
  44   25   26 ar
  45   25   59 1
  46   26   27 ar
  47   27   28 ar
  48   27   32 ar
  49   28   29 ar
  50   28   60 1
  51   29   30 ar
  52   29   35 1
  53   30   31 ar
  54   30   33 1
  55   31   32 ar
  56   31   61 1
  57   33   34 1
  58   34   62 1
  59   34   63 1
  60   34   64 1
  61   35   36 1
  62   36   65 1
  63   36   66 1
  64   36   67 1
  65   37   38 1
  66   37   68 1
  67   37   69 1
  68   38   39 ar
  69   38   43 ar
  70   39   40 ar
  71   39   70 1
  72   40   41 ar
  73   40   71 1
  74   41   42 ar
  75   41   72 1
  76   42   43 ar
  77   42   73 1
  78   43   74 1

#	End of record

