#	Name: ASD03240481
#	Creating user name:	WinNT
#	Creation time:	15. 06. 2019 20:35

#	Modifying user name:	WinNT
#	Modification time:	15. 06. 2019 20:35

#	Program:	/corina/corina34_cracker 3.40 0067  02.08.2006

@<TRIPOS>MOLECULE
ASD03240481
  49   52    0    0    0
SMALL
NO_CHARGES


@<TRIPOS>ATOM
   1 C1            -0.0480     1.4324     0.0438 C.ar    
   2 C2             0.5551     4.2330    -1.0734 C.ar    
   3 C3             1.3238     3.0861    -1.1560 C.ar    
   4 C4             1.3070     2.0881    -0.0270 C.3     
   5 C5             0.5668     5.1504    -2.1046 C.ar    
   6 C6             1.3546     4.9195    -3.2300 C.ar    
   7 C7             2.1265     3.7625    -3.3083 C.ar    
   8 C8             2.1074     2.8517    -2.2714 C.ar    
   9 C9             1.3708     5.9026    -4.3426 C.2     
  10 C10            2.0922     5.8027    -5.4963 C.2     
  11 N11            1.8272     6.8962    -6.2391 N.pl3   
  12 N12            0.9203     7.6957    -5.5328 N.2     
  13 C13            0.6395     7.1048    -4.4016 C.2     
  14 C14           -0.1732     0.0780    -0.2042 C.ar    
  15 C15           -1.4141    -0.5255    -0.1400 C.ar    
  16 C16            1.5957     2.8062     1.2928 C.3     
  17 N17            1.6979     1.8186     2.3755 N.3     
  18 C18            1.9753     2.4734     3.6609 C.3     
  19 C19           -2.5356     0.2289     0.1738 C.ar    
  20 C20           -2.4073     1.5879     0.4223 C.ar    
  21 C21           -1.1632     2.1853     0.3624 C.ar    
  22 O22           -3.7576    -0.3623     0.2373 O.3     
  23 C23           -4.0472    -1.1106     1.3313 C.ar    
  24 C24           -5.2344    -1.8328     1.3873 C.ar    
  25 N25           -5.5129    -2.5602     2.4530 N.ar    
  26 C26           -4.6646    -2.6025     3.4663 C.ar    
  27 C27           -3.4837    -1.8856     3.4134 C.ar    
  28 N28           -3.1966    -1.1592     2.3468 N.ar    
  29 H29           -0.0587     4.4090    -0.2024 H       
  30 H30            2.0693     1.3288    -0.2018 H       
  31 H31           -0.0339     6.0455    -2.0392 H       
  32 H32            2.7390     3.5787    -4.1786 H       
  33 H33            2.7058     1.9545    -2.3309 H       
  34 H34            2.7555     4.9941    -5.7657 H       
  35 H35            2.2006     7.0949    -7.1120 H       
  36 H36           -0.0310     7.4771    -3.6411 H       
  37 H37            0.7000    -0.5087    -0.4488 H       
  38 H38           -1.5114    -1.5834    -0.3342 H       
  39 H39            2.5346     3.3538     1.2107 H       
  40 H40            0.7867     3.5030     1.5119 H       
  41 H41            0.8634     1.2540     2.4299 H       
  42 H42            2.0460     1.7194     4.4449 H       
  43 H43            2.9168     3.0186     3.5952 H       
  44 H44            1.1689     3.1679     3.8964 H       
  45 H45           -3.2787     2.1772     0.6668 H       
  46 H46           -1.0628     3.2431     0.5557 H       
  47 H47           -5.9278    -1.7982     0.5601 H       
  48 H48           -4.8949    -3.1981     4.3373 H       
  49 H49           -2.7930    -1.9221     4.2429 H       
@<TRIPOS>BOND
   1    1   14 ar
   2    1    4 1
   3    1   21 ar
   4    2    3 ar
   5    2    5 ar
   6    2   29 1
   7    3    4 1
   8    3    8 ar
   9    4   16 1
  10    4   30 1
  11    5    6 ar
  12    5   31 1
  13    6    7 ar
  14    6    9 1
  15    7    8 ar
  16    7   32 1
  17    8   33 1
  18    9   10 2
  19    9   13 1
  20   10   11 1
  21   10   34 1
  22   11   12 1
  23   11   35 1
  24   12   13 2
  25   13   36 1
  26   14   15 ar
  27   14   37 1
  28   15   19 ar
  29   15   38 1
  30   16   17 1
  31   16   39 1
  32   16   40 1
  33   17   18 1
  34   17   41 1
  35   18   42 1
  36   18   43 1
  37   18   44 1
  38   19   20 ar
  39   19   22 1
  40   20   21 ar
  41   20   45 1
  42   21   46 1
  43   22   23 1
  44   23   24 ar
  45   23   28 ar
  46   24   25 ar
  47   24   47 1
  48   25   26 ar
  49   26   27 ar
  50   26   48 1
  51   27   28 ar
  52   27   49 1

#	End of record

