#	Name: ASD04882101
#	Creating user name:	WinNT
#	Creation time:	15. 06. 2019 20:54

#	Modifying user name:	WinNT
#	Modification time:	15. 06. 2019 20:54

#	Program:	/corina/corina34_cracker 3.40 0067  02.08.2006

@<TRIPOS>MOLECULE
ASD04882101
  73   78    0    0    0
SMALL
NO_CHARGES


@<TRIPOS>ATOM
   1 C1             1.8640     1.4179     1.0494 C.ar    
   2 C2             1.8904     0.0377     1.0176 C.ar    
   3 C3             1.1354    -0.6484     0.0745 C.ar    
   4 C4             0.3564     0.0571    -0.8336 C.ar    
   5 C5             0.3347     1.4377    -0.7962 C.ar    
   6 C6             1.0872     2.1174     0.1437 C.ar    
   7 N7             1.1601    -2.0444     0.0392 N.3     
   8 C8             1.7482    -2.5292    -1.2173 C.3     
   9 C9            -0.1860    -2.6001     0.2361 C.3     
  10 C10           -0.1043    -4.1281     0.2703 C.3     
  11 N11            0.4838    -4.6128    -0.9862 N.3     
  12 C12            1.8300    -4.0571    -1.1831 C.3     
  13 C13            0.5084    -6.0046    -1.0214 C.ar    
  14 C14            1.2120    -6.7109    -0.0531 C.ar    
  15 C15           -0.1793    -6.6898    -2.0274 C.ar    
  16 C16           -0.1547    -8.0709    -2.0621 C.ar    
  17 C17            0.5585    -8.7788    -1.0901 C.ar    
  18 C18            1.2394    -8.0879    -0.0843 C.ar    
  19 N19           -0.8932    -5.9767    -2.9993 N.am    
  20 C20           -0.9722    -6.4490    -4.2591 C.2     
  21 C21           -1.6309    -5.6538    -5.3002 C.2     
  22 O22           -0.4968    -7.5355    -4.5327 O.2     
  23 C23            0.5876   -10.2535    -1.1230 C.2     
  24 O24           -0.0090   -10.8540    -1.9959 O.2     
  25 N25            1.2755   -10.9350    -0.1855 N.am    
  26 C26            1.3044   -12.3994    -0.2182 C.3     
  27 C27            2.1354   -12.9111     0.9300 C.ar    
  28 C28            1.5855   -12.9874     2.2211 C.ar    
  29 C29           -1.7796    -6.0116    -6.6096 C.2     
  30 C30           -2.4636    -4.9604    -7.2400 C.2     
  31 C31           -2.6995    -4.0190    -6.2998 C.2     
  32 O32           -2.2014    -4.4430    -5.1310 O.3     
  33 C33            2.7375    -0.7235     2.0045 C.3     
  34 C34            3.4206   -13.3072     0.7211 C.ar    
  35 C35            4.2043   -13.7837     1.7705 C.ar    
  36 C36            3.7072   -13.8668     3.0346 C.ar    
  37 C37            2.3825   -13.4718     3.2882 C.ar    
  38 C38            1.8345   -13.5427     4.5803 C.ar    
  39 C39            0.5478   -13.1512     4.7885 C.ar    
  40 C40           -0.2376   -12.6796     3.7381 C.ar    
  41 C41            0.2609   -12.5923     2.4748 C.ar    
  42 H42            2.4472     1.9517     1.7852 H       
  43 H43           -0.2313    -0.4731    -1.5682 H       
  44 H44           -0.2708     1.9869    -1.5019 H       
  45 H45            1.0681     3.1968     0.1710 H       
  46 H46            1.1246    -2.2170    -2.0550 H       
  47 H47            2.7493    -2.1140    -1.3343 H       
  48 H48           -0.5952    -2.2367     1.1787 H       
  49 H49           -0.8317    -2.2888    -0.5851 H       
  50 H50            0.5194    -4.4402     1.1079 H       
  51 H51           -1.1053    -4.5433     0.3872 H       
  52 H52            2.2391    -4.4206    -2.1258 H       
  53 H53            2.4756    -4.3685    -0.3620 H       
  54 H54            1.7387    -6.1791     0.7255 H       
  55 H55           -0.6855    -8.6024    -2.8381 H       
  56 H56            1.7910    -8.6338     0.6668 H       
  57 H57           -1.3306    -5.1431    -2.7655 H       
  58 H58            1.7514   -10.4559     0.5108 H       
  59 H59            0.2885   -12.7848    -0.1317 H       
  60 H60            1.7407   -12.7332    -1.1597 H       
  61 H61           -1.4368    -6.9259    -7.0710 H       
  62 H62           -2.7477    -4.9128    -8.2809 H       
  63 H63           -3.2098    -3.0812    -6.4629 H       
  64 H64            2.1803    -0.8616     2.9311 H       
  65 H65            2.9954    -1.6969     1.5872 H       
  66 H66            3.6495    -0.1628     2.2091 H       
  67 H67            3.8393   -13.2518    -0.2729 H       
  68 H68            5.2212   -14.0920     1.5775 H       
  69 H69            4.3261   -14.2380     3.8380 H       
  70 H70            2.4312   -13.9064     5.4038 H       
  71 H71            0.1290   -13.2070     5.7824 H       
  72 H72           -1.2558   -12.3752     3.9304 H       
  73 H73           -0.3595   -12.2249     1.6707 H       
@<TRIPOS>BOND
   1    1    2 ar
   2    1    6 ar
   3    1   42 1
   4    2    3 ar
   5    2   33 1
   6    3    4 ar
   7    3    7 1
   8    4    5 ar
   9    4   43 1
  10    5    6 ar
  11    5   44 1
  12    6   45 1
  13    7    8 1
  14    7    9 1
  15    8   12 1
  16    8   46 1
  17    8   47 1
  18    9   10 1
  19    9   48 1
  20    9   49 1
  21   10   11 1
  22   10   50 1
  23   10   51 1
  24   11   12 1
  25   11   13 1
  26   12   52 1
  27   12   53 1
  28   13   14 ar
  29   13   15 ar
  30   14   18 ar
  31   14   54 1
  32   15   16 ar
  33   15   19 1
  34   16   17 ar
  35   16   55 1
  36   17   18 ar
  37   17   23 1
  38   18   56 1
  39   19   20 am
  40   19   57 1
  41   20   21 1
  42   20   22 2
  43   21   29 2
  44   21   32 1
  45   23   24 2
  46   23   25 am
  47   25   26 1
  48   25   58 1
  49   26   27 1
  50   26   59 1
  51   26   60 1
  52   27   28 ar
  53   27   34 ar
  54   28   37 ar
  55   28   41 ar
  56   29   30 1
  57   29   61 1
  58   30   31 2
  59   30   62 1
  60   31   32 1
  61   31   63 1
  62   33   64 1
  63   33   65 1
  64   33   66 1
  65   34   35 ar
  66   34   67 1
  67   35   36 ar
  68   35   68 1
  69   36   37 ar
  70   36   69 1
  71   37   38 ar
  72   38   39 ar
  73   38   70 1
  74   39   40 ar
  75   39   71 1
  76   40   41 ar
  77   40   72 1
  78   41   73 1

#	End of record

