#	Name: ASD03540047
#	Creating user name:	WinNT
#	Creation time:	15. 06. 2019 20:42

#	Modifying user name:	WinNT
#	Modification time:	15. 06. 2019 20:42

#	Program:	/corina/corina34_cracker 3.40 0067  02.08.2006

@<TRIPOS>MOLECULE
ASD03540047
  57   60    0    0    0
SMALL
NO_CHARGES


@<TRIPOS>ATOM
   1 C1            -0.0098     1.4717     0.0871 C.2     
   2 C2             0.0060    -0.0047     0.0394 C.ar    
   3 C3             1.2134    -0.6884    -0.1185 C.ar    
   4 C4             1.2210    -2.0670    -0.1618 C.ar    
   5 C5             0.0357    -2.7725    -0.0497 C.ar    
   6 C6            -1.1640    -2.1014     0.1065 C.ar    
   7 C7            -1.1853    -0.7229     0.1576 C.ar    
   8 O8             1.0355     2.0904     0.0944 O.2     
   9 O9            -1.1836     2.1321     0.1170 O.3     
  10 C10            2.5050     0.0782    -0.2417 C.3     
  11 C11            0.0519    -4.2786    -0.0984 C.3     
  12 C12           -0.8767    -5.0630     1.9940 C.2     
  13 N13           -0.7947    -5.5569     3.2607 N.am    
  14 C14            0.4588    -5.7920     3.7721 C.2     
  15 C15            1.5922    -5.5392     3.0335 C.2     
  16 C16            1.4524    -5.0315     1.7352 C.2     
  17 N17            0.2123    -4.8093     1.2577 N.am    
  18 S18            0.2157    -6.4190     5.4082 S.3     
  19 C19           -1.8284    -5.8521     4.1012 C.2     
  20 C20           -1.5529    -6.3332     5.3215 C.2     
  21 O21            2.4343    -4.7947     1.0508 O.2     
  22 O22           -1.9737    -4.8506     1.5149 O.2     
  23 C23            2.9589    -5.8028     3.6111 C.3     
  24 C24           -2.5135    -6.7098     6.3663 C.2     
  25 N25           -2.0722    -7.1809     7.5495 N.am    
  26 O26           -3.7080    -6.5967     6.1640 O.2     
  27 C27           -3.0305    -7.5566     8.5918 C.3     
  28 C28           -2.2852    -8.0484     9.8058 C.ar    
  29 C29           -1.9111    -7.1575    10.7945 C.ar    
  30 C30           -1.2280    -7.6075    11.9084 C.ar    
  31 C31           -0.9183    -8.9511    12.0339 C.ar    
  32 C32           -1.2935    -9.8425    11.0431 C.ar    
  33 C33           -1.9812    -9.3911     9.9326 C.ar    
  34 F34           -0.2502    -9.3921    13.1222 F       
  35 C35           -1.1231     3.5821     0.1634 C.3     
  36 H36            2.1540    -2.5970    -0.2838 H       
  37 H37           -2.0854    -2.6581     0.1927 H       
  38 H38           -2.1220    -0.2004     0.2844 H       
  39 H39            2.8704     0.3366     0.7522 H       
  40 H40            3.2455    -0.5373    -0.7524 H       
  41 H41            2.3332     0.9898    -0.8140 H       
  42 H42           -0.8862    -4.6386    -0.5208 H       
  43 H43            0.8824    -4.6131    -0.7201 H       
  44 H44           -2.8509    -5.7007     3.7885 H       
  45 H45            3.2604    -6.8243     3.3794 H       
  46 H46            3.6766    -5.1053     3.1792 H       
  47 H47            2.9283    -5.6694     4.6925 H       
  48 H48           -1.1199    -7.2711     7.7108 H       
  49 H49           -3.6324    -6.6889     8.8619 H       
  50 H50           -3.6808    -8.3481     8.2193 H       
  51 H51           -2.1525    -6.1095    10.6961 H       
  52 H52           -0.9355    -6.9113    12.6805 H       
  53 H53           -1.0525   -10.8908    11.1400 H       
  54 H54           -2.2776   -10.0868     9.1615 H       
  55 H55           -2.1348     3.9874     0.1839 H       
  56 H56           -0.5881     3.8950     1.0600 H       
  57 H57           -0.6012     3.9524    -0.7190 H       
@<TRIPOS>BOND
   1    1    2 1
   2    1    8 2
   3    1    9 1
   4    2    3 ar
   5    2    7 ar
   6    3    4 ar
   7    3   10 1
   8    4    5 ar
   9    4   36 1
  10    5    6 ar
  11    5   11 1
  12    6    7 ar
  13    6   37 1
  14    7   38 1
  15    9   35 1
  16   10   39 1
  17   10   40 1
  18   10   41 1
  19   11   17 1
  20   11   42 1
  21   11   43 1
  22   12   13 am
  23   12   17 am
  24   12   22 2
  25   13   14 1
  26   13   19 1
  27   14   15 2
  28   14   18 1
  29   15   16 1
  30   15   23 1
  31   16   17 am
  32   16   21 2
  33   18   20 1
  34   19   20 2
  35   19   44 1
  36   20   24 1
  37   23   45 1
  38   23   46 1
  39   23   47 1
  40   24   25 am
  41   24   26 2
  42   25   27 1
  43   25   48 1
  44   27   28 1
  45   27   49 1
  46   27   50 1
  47   28   29 ar
  48   28   33 ar
  49   29   30 ar
  50   29   51 1
  51   30   31 ar
  52   30   52 1
  53   31   32 ar
  54   31   34 1
  55   32   33 ar
  56   32   53 1
  57   33   54 1
  58   35   55 1
  59   35   56 1
  60   35   57 1

#	End of record

