#	Name: ASD01913124
#	Creating user name:	WinNT
#	Creation time:	15. 06. 2019 20:01

#	Modifying user name:	WinNT
#	Modification time:	15. 06. 2019 20:01

#	Program:	/corina/corina34_cracker 3.40 0067  02.08.2006

@<TRIPOS>MOLECULE
ASD01913124
  44   47    0    0    0
SMALL
NO_CHARGES


@<TRIPOS>ATOM
   1 C1            -0.8045     1.9743     1.1349 C.ar    
   2 C2            -0.8253     0.5478     0.7317 C.2     
   3 N3            -1.8532    -0.3228     0.9030 N.2     
   4 C4            -1.4998    -1.4794     0.4240 C.2     
   5 O5            -0.2546    -1.3914    -0.0625 O.3     
   6 C6             0.1767    -0.1294     0.1178 C.2     
   7 C7            -2.3546    -2.7206     0.4176 C.3     
   8 C8            -2.5720    -3.1837    -1.0247 C.3     
   9 C9            -3.4670    -4.4250    -1.0343 C.3     
  10 C10           -2.7759    -5.5539    -0.2630 C.3     
  11 N11           -2.4327    -5.0677     1.0803 N.am    
  12 C12           -1.6508    -3.8301     1.2053 C.3     
  13 C13           -2.8277    -5.7442     2.1771 C.2     
  14 C14           -3.6837    -6.9402     2.0388 C.ar    
  15 O15           -2.4795    -5.3701     3.2802 O.2     
  16 N16            0.2762     2.7083     0.9024 N.ar    
  17 C17            0.3345     3.9797     1.2449 C.ar    
  18 C18           -0.7357     4.5978     1.8632 C.ar    
  19 C19           -1.8864     3.8664     2.1251 C.ar    
  20 C20           -1.9227     2.5354     1.7499 C.ar    
  21 C21           -3.3275    -7.9576     1.1516 C.ar    
  22 C22           -4.1293    -9.0723     1.0255 C.ar    
  23 C23           -5.2880    -9.1847     1.7771 C.ar    
  24 C24           -5.6483    -8.1761     2.6612 C.ar    
  25 C25           -4.8490    -7.0595     2.7995 C.ar    
  26 F26           -6.0700   -10.2790     1.6491 F       
  27 F27           -6.7794    -8.2909     3.3911 F       
  28 H28            1.1404     0.2671    -0.1660 H       
  29 H29           -3.3177    -2.5013     0.8785 H       
  30 H30           -3.0505    -2.3866    -1.5938 H       
  31 H31           -1.6104    -3.4258    -1.4773 H       
  32 H32           -4.4198    -4.1903    -0.5596 H       
  33 H33           -3.6406    -4.7405    -2.0631 H       
  34 H34           -3.4497    -6.4068    -0.1818 H       
  35 H35           -1.8676    -5.8516    -0.7869 H       
  36 H36           -0.6508    -3.9872     0.8012 H       
  37 H37           -1.5823    -3.5456     2.2553 H       
  38 H38            1.2310     4.5460     1.0399 H       
  39 H39           -0.6774     5.6400     2.1404 H       
  40 H40           -2.7357     4.3274     2.6073 H       
  41 H41           -2.8020     1.9372     1.9381 H       
  42 H42           -2.4252    -7.8715     0.5644 H       
  43 H43           -3.8538    -9.8594     0.3392 H       
  44 H44           -5.1290    -6.2753     3.4872 H       
@<TRIPOS>BOND
   1    1    2 1
   2    1   16 ar
   3    1   20 ar
   4    2    3 1
   5    2    6 2
   6    3    4 2
   7    4    5 1
   8    4    7 1
   9    5    6 1
  10    6   28 1
  11    7    8 1
  12    7   12 1
  13    7   29 1
  14    8    9 1
  15    8   30 1
  16    8   31 1
  17    9   10 1
  18    9   32 1
  19    9   33 1
  20   10   11 1
  21   10   34 1
  22   10   35 1
  23   11   12 1
  24   11   13 am
  25   12   36 1
  26   12   37 1
  27   13   14 1
  28   13   15 2
  29   14   21 ar
  30   14   25 ar
  31   16   17 ar
  32   17   18 ar
  33   17   38 1
  34   18   19 ar
  35   18   39 1
  36   19   20 ar
  37   19   40 1
  38   20   41 1
  39   21   22 ar
  40   21   42 1
  41   22   23 ar
  42   22   43 1
  43   23   24 ar
  44   23   26 1
  45   24   25 ar
  46   24   27 1
  47   25   44 1

#	End of record

