#	Name: ASD09740227
#	Creating user name:	WinNT
#	Creation time:	15. 06. 2019 21:23

#	Modifying user name:	WinNT
#	Modification time:	15. 06. 2019 21:23

#	Program:	/corina/corina34_cracker 3.40 0067  02.08.2006

@<TRIPOS>MOLECULE
ASD09740227
  75   78    0    0    0
SMALL
NO_CHARGES


@<TRIPOS>ATOM
   1 N1             1.8042     0.6790     0.5133 N.2     
   2 O2             1.2479    -0.3686     0.2608 O.3     
   3 C3             1.2262     1.6659    -0.1223 C.2     
   4 N4             0.2071     1.1436    -0.8362 N.2     
   5 C5             0.2289    -0.1527    -0.5859 C.2     
   6 C6            -0.6914    -1.1701    -1.1330 C.ar    
   7 C7             1.6190     3.0962    -0.0681 C.ar    
   8 C8            -0.5439    -2.5123    -0.7746 C.ar    
   9 C9            -1.7140    -0.7918    -2.0048 C.ar    
  10 C10           -2.5727    -1.7428    -2.5145 C.ar    
  11 C11           -2.4232    -3.0765    -2.1629 C.ar    
  12 C12           -1.4072    -3.4604    -1.2891 C.ar    
  13 C13            2.9583     3.4567    -0.2118 C.ar    
  14 C14            3.3240     4.7835    -0.1617 C.ar    
  15 C15            2.3528     5.7681     0.0332 C.ar    
  16 C16            1.0120     5.4059     0.1770 C.ar    
  17 C17            0.6480     4.0784     0.1208 C.ar    
  18 C18            2.7441     7.1925     0.0877 C.2     
  19 O19           -3.2720    -4.0098    -2.6673 O.3     
  20 C20           -4.2936    -3.5466    -3.5527 C.3     
  21 C21           -5.1442    -4.7316    -4.0143 C.3     
  22 O22           -1.2632    -4.7685    -0.9463 O.3     
  23 C23           -0.2007    -5.0903    -0.0465 C.3     
  24 C24           -0.1966    -6.5969     0.2199 C.3     
  25 C25           -0.7990     3.6871     0.2759 C.3     
  26 N26            3.8030     7.5726     0.8297 N.am    
  27 O27            2.1108     8.0211    -0.5368 O.2     
  28 C28            4.1492     8.9944     0.9662 C.3     
  29 C29            4.2028     9.3447     2.4583 C.3     
  30 N30            5.0318     8.3448     3.1460 N.am    
  31 C31            4.6856     6.9230     3.0096 C.3     
  32 C32            4.6287     6.5731     1.5219 C.3     
  33 O33            6.8420     7.7987     4.5129 O.3     
  34 C34            7.9668     8.2803     5.2947 C.3     
  35 C35            7.4597     9.2110     6.3982 C.3     
  36 C36            8.6959     7.0920     5.9250 C.3     
  37 C37            8.9300     9.0454     4.3849 C.3     
  38 C38            6.0907     8.7249     3.8881 C.2     
  39 O39            6.3673     9.9034     3.9932 O.2     
  40 H40            0.2435    -2.8083    -0.0972 H       
  41 H41           -1.8329     0.2458    -2.2798 H       
  42 H42           -3.3636    -1.4487    -3.1886 H       
  43 H43            3.7092     2.6952    -0.3621 H       
  44 H44            4.3615     5.0625    -0.2727 H       
  45 H45            0.2601     6.1663     0.3278 H       
  46 H46           -4.9255    -2.8263    -3.0330 H       
  47 H47           -3.8349    -3.0693    -4.4186 H       
  48 H48           -5.6028    -5.2089    -3.1483 H       
  49 H49           -5.9234    -4.3783    -4.6896 H       
  50 H50           -4.5122    -5.4519    -4.5339 H       
  51 H51            0.7513    -4.7969    -0.4887 H       
  52 H52           -0.3454    -4.5557     0.8924 H       
  53 H53           -0.0520    -7.1314    -0.7190 H       
  54 H54            0.6138    -6.8423     0.9063 H       
  55 H55           -1.1487    -6.8903     0.6621 H       
  56 H56           -1.2928     3.7288    -0.6949 H       
  57 H57           -0.8608     2.6733     0.6717 H       
  58 H58           -1.2901     4.3759     0.9633 H       
  59 H59            5.1226     9.1791     0.5118 H       
  60 H60            3.3914     9.6042     0.4742 H       
  61 H61            4.6417    10.3342     2.5863 H       
  62 H62            3.1950     9.3324     2.8735 H       
  63 H63            5.4434     6.3132     3.5015 H       
  64 H64            3.7122     6.7383     3.4639 H       
  65 H65            4.1897     5.5834     1.3955 H       
  66 H66            5.6355     6.5854     1.1044 H       
  67 H67            6.7735     8.6659     7.0463 H       
  68 H68            8.3040     9.5726     6.9850 H       
  69 H69            6.9402    10.0576     5.9492 H       
  70 H70            9.0572     6.4290     5.1389 H       
  71 H71            9.5403     7.4535     6.5118 H       
  72 H72            8.0097     6.5469     6.5732 H       
  73 H73            8.4105     9.8920     3.9359 H       
  74 H74            9.7743     9.4070     4.9718 H       
  75 H75            9.2912     8.3824     3.5988 H       
@<TRIPOS>BOND
   1    1    2 1
   2    1    3 2
   3    2    5 1
   4    3    4 1
   5    3    7 1
   6    4    5 2
   7    5    6 1
   8    6    8 ar
   9    6    9 ar
  10    7   13 ar
  11    7   17 ar
  12    8   12 ar
  13    8   40 1
  14    9   10 ar
  15    9   41 1
  16   10   11 ar
  17   10   42 1
  18   11   12 ar
  19   11   19 1
  20   12   22 1
  21   13   14 ar
  22   13   43 1
  23   14   15 ar
  24   14   44 1
  25   15   16 ar
  26   15   18 1
  27   16   17 ar
  28   16   45 1
  29   17   25 1
  30   18   26 am
  31   18   27 2
  32   19   20 1
  33   20   21 1
  34   20   46 1
  35   20   47 1
  36   21   48 1
  37   21   49 1
  38   21   50 1
  39   22   23 1
  40   23   24 1
  41   23   51 1
  42   23   52 1
  43   24   53 1
  44   24   54 1
  45   24   55 1
  46   25   56 1
  47   25   57 1
  48   25   58 1
  49   26   28 1
  50   26   32 1
  51   28   29 1
  52   28   59 1
  53   28   60 1
  54   29   30 1
  55   29   61 1
  56   29   62 1
  57   30   31 1
  58   30   38 am
  59   31   32 1
  60   31   63 1
  61   31   64 1
  62   32   65 1
  63   32   66 1
  64   33   34 1
  65   33   38 1
  66   34   35 1
  67   34   36 1
  68   34   37 1
  69   35   67 1
  70   35   68 1
  71   35   69 1
  72   36   70 1
  73   36   71 1
  74   36   72 1
  75   37   73 1
  76   37   74 1
  77   37   75 1
  78   38   39 2

#	End of record

