#	Name: ASD01881397
#	Creating user name:	WinNT
#	Creation time:	15. 06. 2019 19:42

#	Modifying user name:	WinNT
#	Modification time:	15. 06. 2019 19:42

#	Program:	/corina/corina34_cracker 3.40 0067  02.08.2006

@<TRIPOS>MOLECULE
ASD01881397
  43   46    0    0    0
SMALL
NO_CHARGES


@<TRIPOS>ATOM
   1 C1             0.1859     1.6018    -1.1397 C.ar    
   2 C2             0.2902     0.3184    -1.6342 C.ar    
   3 C3             1.2583     2.1813    -0.4763 C.ar    
   4 C4             2.4419     1.4703    -0.3078 C.ar    
   5 C5             2.5524     0.1860    -0.8008 C.ar    
   6 C6             1.4749    -0.3982    -1.4675 C.ar    
   7 C7             1.5893    -1.7767    -1.9978 C.2     
   8 C8             0.8019    -2.7908    -1.4829 C.2     
   9 C9             2.5018    -2.0684    -3.0409 C.2     
  10 C10            2.6044    -3.3215    -3.5213 C.2     
  11 N11            1.8350    -4.3302    -3.0158 N.pl3   
  12 C12            0.9338    -4.0890    -2.0073 C.2     
  13 C13            1.7286    -5.6576    -3.2995 C.2     
  14 N14            0.8232    -6.1601    -2.5002 N.2     
  15 N15            0.3463    -5.2437    -1.7332 N.2     
  16 C16            2.5111    -6.4107    -4.3443 C.3     
  17 Cl17          -0.3314    -2.4660    -0.2086 Cl      
  18 F18            3.4840     2.0374     0.3385 F       
  19 O19            1.1520     3.4461     0.0092 O.3     
  20 C20           -0.0531     4.0640    -0.0809 C.ar    
  21 C21           -1.0009     3.9322     0.9316 C.ar    
  22 C22           -0.3715     4.8507    -1.1851 C.ar    
  23 C23           -1.6074     5.4622    -1.2391 C.ar    
  24 N24           -2.4810     5.3087    -0.2622 N.ar    
  25 C25           -2.2140     4.5760     0.8026 C.ar    
  26 C26           -3.2502     4.4354     1.8878 C.3     
  27 C27            3.7985    -6.9559    -3.7228 C.3     
  28 F28            3.4787    -7.8179    -2.6684 F       
  29 F29            4.5249    -7.6550    -4.6927 F       
  30 F30            4.5692    -5.8932    -3.2390 F       
  31 H31           -0.7302     2.1581    -1.2728 H       
  32 H32           -0.5454    -0.1315    -2.1498 H       
  33 H33            3.4715    -0.3660    -0.6707 H       
  34 H34            3.1174    -1.2823    -3.4526 H       
  35 H35            3.3038    -3.5319    -4.3168 H       
  36 H36            1.9107    -7.2387    -4.7213 H       
  37 H37            2.7603    -5.7391    -5.1658 H       
  38 H38           -0.7889     3.3338     1.8053 H       
  39 H39            0.3391     4.9807    -1.9879 H       
  40 H40           -1.8626     6.0744    -2.0915 H       
  41 H41           -3.8834     3.5738     1.6761 H       
  42 H42           -2.7538     4.2942     2.8479 H       
  43 H43           -3.8626     5.3363     1.9244 H       
@<TRIPOS>BOND
   1    1    2 ar
   2    1    3 ar
   3    1   31 1
   4    2    6 ar
   5    2   32 1
   6    3    4 ar
   7    3   19 1
   8    4    5 ar
   9    4   18 1
  10    5    6 ar
  11    5   33 1
  12    6    7 1
  13    7    8 2
  14    7    9 1
  15    8   17 1
  16    8   12 1
  17    9   10 2
  18    9   34 1
  19   10   11 1
  20   10   35 1
  21   11   12 1
  22   11   13 1
  23   12   15 2
  24   13   14 2
  25   13   16 1
  26   14   15 1
  27   16   27 1
  28   16   36 1
  29   16   37 1
  30   19   20 1
  31   20   21 ar
  32   20   22 ar
  33   21   25 ar
  34   21   38 1
  35   22   23 ar
  36   22   39 1
  37   23   24 ar
  38   23   40 1
  39   24   25 ar
  40   25   26 1
  41   26   41 1
  42   26   42 1
  43   26   43 1
  44   27   28 1
  45   27   29 1
  46   27   30 1

#	End of record

