#	Name: ASD01814294
#	Creating user name:	WinNT
#	Creation time:	15. 06. 2019 19:32

#	Modifying user name:	WinNT
#	Modification time:	15. 06. 2019 19:32

#	Program:	/corina/corina34_cracker 3.40 0067  02.08.2006

@<TRIPOS>MOLECULE
ASD01814294
  56   61    0    0    0
SMALL
NO_CHARGES


@<TRIPOS>ATOM
   1 C1            -0.0168     1.3869     0.0097 C.ar    
   2 C2             0.0021    -0.0041     0.0020 C.ar    
   3 C3             1.1801    -0.6897    -0.0124 C.ar    
   4 C4             2.3948     0.0129    -0.0202 C.ar    
   5 C5             2.3717     1.4289    -0.0129 C.ar    
   6 C6             1.1455     2.1014     0.0024 C.ar    
   7 C7             3.6294    -0.6695    -0.0356 C.ar    
   8 C8             4.8032     0.0061    -0.0437 C.ar    
   9 C9             4.8361     1.4094    -0.0365 C.ar    
  10 C10            3.6406     2.1511    -0.0211 C.ar    
  11 C11            6.1027     2.1517    -0.0446 C.2     
  12 N12            6.0338     3.5032    -0.0368 N.am    
  13 C13            4.8294     4.1317    -0.0219 C.2     
  14 N14            3.6956     3.4935    -0.0149 N.2     
  15 C15            3.6423    -2.1764    -0.0428 C.3     
  16 C16            3.5088    -2.6732    -1.4593 C.ar    
  17 C17            4.6401    -2.8899    -2.2242 C.ar    
  18 C18            4.5204    -3.3452    -3.5229 C.ar    
  19 C19            3.2638    -3.5851    -4.0595 C.ar    
  20 C20            2.1302    -3.3669    -3.2900 C.ar    
  21 C21            2.2555    -2.9169    -1.9899 C.ar    
  22 O22            7.1744     1.5733    -0.0575 O.2     
  23 C23            7.2118     4.2589    -0.0435 C.2     
  24 N24            7.2780     5.5693    -0.0371 N.2     
  25 N25            8.6414     5.9061    -0.0478 N.pl3   
  26 C26            9.3209     4.7429    -0.0603 C.2     
  27 N27            8.4533     3.7637    -0.0517 N.2     
  28 C28            9.1871     7.1970    -0.0460 C.ar    
  29 C29            8.3512     8.3056    -0.0318 C.ar    
  30 C30            8.8919     9.5764    -0.0295 C.ar    
  31 C31           10.2643     9.7454    -0.0417 C.ar    
  32 C32           11.0994     8.6433    -0.0562 C.ar    
  33 C33           10.5647     7.3699    -0.0524 C.ar    
  34 O34            3.1433    -4.0327    -5.3371 O.3     
  35 C35            1.8187    -4.2581    -5.8234 C.3     
  36 H36           -0.9630     1.9075     0.0169 H       
  37 H37           -0.9305    -0.5488     0.0080 H       
  38 H38            1.1786    -1.7697    -0.0175 H       
  39 H39            1.1188     3.1811     0.0077 H       
  40 H40            5.7316    -0.5455    -0.0554 H       
  41 H41            4.8123     5.2116    -0.0160 H       
  42 H42            4.5811    -2.5337     0.3806 H       
  43 H43            2.8096    -2.5498     0.5532 H       
  44 H44            5.6181    -2.7026    -1.8061 H       
  45 H45            5.4043    -3.5140    -4.1201 H       
  46 H46            1.1509    -3.5529    -3.7055 H       
  47 H47            1.3735    -2.7472    -1.3903 H       
  48 H48           10.3957     4.6370    -0.0707 H       
  49 H49            7.2792     8.1742    -0.0230 H       
  50 H50            8.2423    10.4391    -0.0186 H       
  51 H51           10.6849    10.7402    -0.0402 H       
  52 H52           12.1709     8.7785    -0.0661 H       
  53 H53           11.2174     6.5095    -0.0634 H       
  54 H54            1.3264    -5.0070    -5.2030 H       
  55 H55            1.2541    -3.3265    -5.7850 H       
  56 H56            1.8651    -4.6126    -6.8531 H       
@<TRIPOS>BOND
   1    1    2 ar
   2    1    6 ar
   3    1   36 1
   4    2    3 ar
   5    2   37 1
   6    3    4 ar
   7    3   38 1
   8    4    5 ar
   9    4    7 ar
  10    5    6 ar
  11    5   10 ar
  12    6   39 1
  13    7    8 ar
  14    7   15 1
  15    8    9 ar
  16    8   40 1
  17    9   10 ar
  18    9   11 1
  19   10   14 1
  20   11   12 am
  21   11   22 2
  22   12   13 1
  23   12   23 1
  24   13   14 2
  25   13   41 1
  26   15   16 1
  27   15   42 1
  28   15   43 1
  29   16   17 ar
  30   16   21 ar
  31   17   18 ar
  32   17   44 1
  33   18   19 ar
  34   18   45 1
  35   19   20 ar
  36   19   34 1
  37   20   21 ar
  38   20   46 1
  39   21   47 1
  40   23   24 2
  41   23   27 1
  42   24   25 1
  43   25   26 1
  44   25   28 1
  45   26   27 2
  46   26   48 1
  47   28   29 ar
  48   28   33 ar
  49   29   30 ar
  50   29   49 1
  51   30   31 ar
  52   30   50 1
  53   31   32 ar
  54   31   51 1
  55   32   33 ar
  56   32   52 1
  57   33   53 1
  58   34   35 1
  59   35   54 1
  60   35   55 1
  61   35   56 1

#	End of record

