#	Name: ASD01910995
#	Creating user name:	WinNT
#	Creation time:	15. 06. 2019 19:56

#	Modifying user name:	WinNT
#	Modification time:	15. 06. 2019 19:56

#	Program:	/corina/corina34_cracker 3.40 0067  02.08.2006

@<TRIPOS>MOLECULE
ASD01910995
  51   54    0    0    0
SMALL
NO_CHARGES


@<TRIPOS>ATOM
   1 N1             0.1393     1.3756    -0.1950 N.3     
   2 C2             0.0792    -0.0903    -0.1200 C.3     
   3 C3            -1.3666    -0.5263     0.1403 C.3     
   4 N4            -2.2292     0.0798    -0.8853 N.am    
   5 C5            -2.1254     1.5290    -1.1141 C.3     
   6 C6            -0.6497     1.8841    -1.3250 C.3     
   7 C7            -3.0915    -0.6728    -1.5969 C.2     
   8 C8            -4.0358    -0.0287    -2.5332 C.ar    
   9 C9            -4.3100    -0.6218    -3.7685 C.ar    
  10 C10           -5.1915    -0.0237    -4.6454 C.ar    
  11 C11           -5.8105     1.1670    -4.3091 C.ar    
  12 C12           -5.5444     1.7722    -3.0735 C.ar    
  13 C13           -4.6583     1.1679    -2.1830 C.ar    
  14 C14           -6.1843     3.0049    -2.7247 C.1     
  15 O15           -3.0924    -1.8817    -1.4685 O.2     
  16 C16           -6.7090     4.0154    -2.4388 C.1     
  17 C17           -7.3490     5.2481    -2.0900 C.ar    
  18 N18           -7.0915     5.8164    -0.9159 N.ar    
  19 C19           -7.6600     6.9497    -0.5588 C.ar    
  20 C20           -8.5510     7.5933    -1.3978 C.ar    
  21 C21           -8.8493     7.0353    -2.6340 C.ar    
  22 C22           -8.2355     5.8481    -2.9885 C.ar    
  23 C23            1.4496     1.8152    -0.2673 C.ar    
  24 F24           -6.6722     1.7470    -5.1729 F       
  25 N25            1.6915     3.1154    -0.3412 N.ar    
  26 C26            2.9372     3.5690    -0.4112 C.ar    
  27 C27            3.9914     2.6569    -0.4061 C.ar    
  28 C28            3.6968     1.3085    -0.3278 C.ar    
  29 N29            2.4312     0.9254    -0.2555 N.ar    
  30 O30            3.1806     4.8999    -0.4871 O.3     
  31 C31            2.0455     5.7680    -0.4874 C.3     
  32 H32            0.4239    -0.5171    -1.0618 H       
  33 H33            0.7162    -0.4393     0.6927 H       
  34 H34           -1.4375    -1.6124     0.0831 H       
  35 H35           -1.6790    -0.1877     1.1281 H       
  36 H36           -2.6979     1.8016    -2.0007 H       
  37 H37           -2.5107     2.0651    -0.2469 H       
  38 H38           -0.5413     2.9669    -1.3862 H       
  39 H39           -0.2949     1.4297    -2.2501 H       
  40 H40           -3.8301    -1.5511    -4.0379 H       
  41 H41           -5.3990    -0.4869    -5.5987 H       
  42 H42           -4.4492     1.6291    -1.2291 H       
  43 H43           -7.4272     7.3822     0.4031 H       
  44 H44           -9.0113     8.5219    -1.0942 H       
  45 H45           -9.5425     7.5202    -3.3055 H       
  46 H46           -8.4444     5.3869    -3.9425 H       
  47 H47            5.0152     2.9961    -0.4623 H       
  48 H48            4.4903     0.5758    -0.3217 H       
  49 H49            2.3799     6.8034    -0.5519 H       
  50 H50            1.4116     5.5369    -1.3435 H       
  51 H51            1.4791     5.6258     0.4330 H       
@<TRIPOS>BOND
   1    1    2 1
   2    1   23 1
   3    1    6 1
   4    2    3 1
   5    2   32 1
   6    2   33 1
   7    3    4 1
   8    3   34 1
   9    3   35 1
  10    4    5 1
  11    4    7 am
  12    5    6 1
  13    5   36 1
  14    5   37 1
  15    6   38 1
  16    6   39 1
  17    7    8 1
  18    7   15 2
  19    8    9 ar
  20    8   13 ar
  21    9   10 ar
  22    9   40 1
  23   10   11 ar
  24   10   41 1
  25   11   12 ar
  26   11   24 1
  27   12   13 ar
  28   12   14 1
  29   13   42 1
  30   14   16 3
  31   16   17 1
  32   17   18 ar
  33   17   22 ar
  34   18   19 ar
  35   19   20 ar
  36   19   43 1
  37   20   21 ar
  38   20   44 1
  39   21   22 ar
  40   21   45 1
  41   22   46 1
  42   23   25 ar
  43   23   29 ar
  44   25   26 ar
  45   26   27 ar
  46   26   30 1
  47   27   28 ar
  48   27   47 1
  49   28   29 ar
  50   28   48 1
  51   30   31 1
  52   31   49 1
  53   31   50 1
  54   31   51 1

#	End of record

