#	Name: ASD01917943
#	Creating user name:	WinNT
#	Creation time:	15. 06. 2019 20:10

#	Modifying user name:	WinNT
#	Modification time:	15. 06. 2019 20:10

#	Program:	/corina/corina34_cracker 3.40 0067  02.08.2006

@<TRIPOS>MOLECULE
ASD01917943
  36   39    0    0    0
SMALL
NO_CHARGES


@<TRIPOS>ATOM
   1 N1             4.7261    -0.5757    -2.1730 N.ar    
   2 C2             5.2104     0.1543    -3.1576 C.ar    
   3 N3             5.1518     1.4708    -3.1424 N.ar    
   4 C4             4.5986     2.1141    -2.1276 C.ar    
   5 C5             4.0752     1.3804    -1.0678 C.ar    
   6 C6             4.1573    -0.0073    -1.1226 C.ar    
   7 O7             3.4991     2.0032    -0.0061 O.3     
   8 C8             3.5511     3.3614     0.0427 C.2     
   9 N9             2.4076     5.4370    -0.0234 N.pl3   
  10 C10            2.4043     4.0794    -0.0667 C.2     
  11 C11            4.7860     3.9992     0.2110 C.2     
  12 C12            4.8310     5.3881     0.2604 C.2     
  13 C13            3.5755     6.1279     0.1334 C.2     
  14 C14            6.1100     6.0962     0.4367 C.2     
  15 N15            6.1340     7.4430     0.4822 N.am    
  16 C16            7.3265     8.1096     0.7542 C.ar    
  17 N17            8.4532     7.4215     0.8597 N.ar    
  18 C18            7.3234     9.4908     0.9067 C.ar    
  19 C19            8.5149    10.1424     1.1768 C.ar    
  20 C20            9.6729     9.3873     1.2856 C.ar    
  21 C21            9.6049     8.0147     1.1166 C.ar    
  22 O22            7.1449     5.4657     0.5411 O.2     
  23 N23            1.3941     6.4025    -0.1106 N.2     
  24 C24            1.9710     7.5766    -0.0122 C.2     
  25 N25            3.2797     7.4180     0.1393 N.2     
  26 F26           10.7300     7.2734     1.2157 F       
  27 H27            5.6690    -0.3406    -4.0009 H       
  28 H28            4.5543     3.1932    -2.1216 H       
  29 H29            3.7622    -0.6117    -0.3195 H       
  30 H30            1.4665     3.5585    -0.1915 H       
  31 H31            5.6927     3.4195     0.3016 H       
  32 H32            5.3208     7.9481     0.3257 H       
  33 H33            6.4034    10.0490     0.8152 H       
  34 H34            8.5418    11.2151     1.2997 H       
  35 H35           10.6185     9.8651     1.4953 H       
  36 H36            1.4584     8.5268    -0.0432 H       
@<TRIPOS>BOND
   1    1    2 ar
   2    1    6 ar
   3    2    3 ar
   4    2   27 1
   5    3    4 ar
   6    4    5 ar
   7    4   28 1
   8    5    6 ar
   9    5    7 1
  10    6   29 1
  11    7    8 1
  12    8   11 1
  13    8   10 2
  14    9   10 1
  15    9   23 1
  16    9   13 1
  17   10   30 1
  18   11   12 2
  19   11   31 1
  20   12   13 1
  21   12   14 1
  22   13   25 2
  23   14   15 am
  24   14   22 2
  25   15   16 1
  26   15   32 1
  27   16   18 ar
  28   16   17 ar
  29   17   21 ar
  30   18   19 ar
  31   18   33 1
  32   19   20 ar
  33   19   34 1
  34   20   21 ar
  35   20   35 1
  36   21   26 1
  37   23   24 2
  38   24   25 1
  39   24   36 1

#	End of record

