#	Name: ASD01940426
#	Creating user name:	WinNT
#	Creation time:	15. 06. 2019 20:12

#	Modifying user name:	WinNT
#	Modification time:	15. 06. 2019 20:12

#	Program:	/corina/corina34_cracker 3.40 0067  02.08.2006

@<TRIPOS>MOLECULE
ASD01940426
  43   46    0    0    0
SMALL
NO_CHARGES


@<TRIPOS>ATOM
   1 C1             0.9162     7.4904     2.3741 C.3     
   2 C2             1.3652     8.3234     3.5763 C.3     
   3 C3             2.2434     8.2500     2.3257 C.3     
   4 S4             0.9898     5.6848     2.5317 S.o2    
   5 O5             2.3390     5.2454     2.6068 O.2     
   6 O6             0.0169     5.2252     3.4600 O.2     
   7 N7             0.4571     5.1202     1.0689 N.am    
   8 N8             3.4030     5.9314    -3.5513 N.pl3   
   9 N9             2.5376     6.8352    -4.1795 N.2     
  10 C10            1.5007     7.0500    -3.4226 C.2     
  11 C11            1.6361     6.2851    -2.2398 C.ar    
  12 C12            0.8362     6.1275    -1.0930 C.ar    
  13 C13            1.2529     5.2817    -0.0791 C.ar    
  14 C14            2.4603     4.5886    -0.1911 C.ar    
  15 C15            3.2528     4.7373    -1.3123 C.ar    
  16 C16            2.8507     5.5829    -2.3429 C.ar    
  17 O17            2.8588     3.7612     0.8118 O.3     
  18 C18            4.1660     3.1941     0.7042 C.3     
  19 N19           -0.3724     6.8208    -0.9781 N.pl3   
  20 C20           -0.3689     8.1884    -0.6869 C.ar    
  21 C21           -1.5610     8.9061    -0.6944 C.ar    
  22 C22           -1.5532    10.2578    -0.4055 C.ar    
  23 C23           -0.3615    10.8962    -0.1097 C.ar    
  24 C24            0.8244    10.1849    -0.1017 C.ar    
  25 C25            0.8232     8.8322    -0.3839 C.ar    
  26 I26           -0.3539    12.9454     0.3263 I       
  27 F27           -2.7242     8.2829    -0.9840 F       
  28 H28            0.0929     7.8769     1.7733 H       
  29 H29            0.8373     9.2579     3.7665 H       
  30 H30            1.7048     7.7864     4.4620 H       
  31 H31            3.1608     7.6647     2.3886 H       
  32 H32            2.2934     9.1362     1.6930 H       
  33 H33           -0.4038     4.6781     1.0040 H       
  34 H34            4.2436     5.6052    -3.9088 H       
  35 H35            0.6742     7.7040    -3.6581 H       
  36 H36            4.1852     4.1977    -1.3896 H       
  37 H37            4.2071     2.5383    -0.1655 H       
  38 H38            4.9002     3.9920     0.5926 H       
  39 H39            4.3879     2.6194     1.6034 H       
  40 H40           -1.2133     6.3531    -1.1004 H       
  41 H41           -2.4776    10.8162    -0.4109 H       
  42 H42            1.7524    10.6866     0.1293 H       
  43 H43            1.7495     8.2771    -0.3729 H       
@<TRIPOS>BOND
   1    1    2 1
   2    1    3 1
   3    1    4 1
   4    1   28 1
   5    2    3 1
   6    2   29 1
   7    2   30 1
   8    3   31 1
   9    3   32 1
  10    4    5 2
  11    4    6 2
  12    4    7 am
  13    7   13 1
  14    7   33 1
  15    8    9 1
  16    8   16 1
  17    8   34 1
  18    9   10 2
  19   10   11 1
  20   10   35 1
  21   11   12 ar
  22   11   16 ar
  23   12   13 ar
  24   12   19 1
  25   13   14 ar
  26   14   15 ar
  27   14   17 1
  28   15   16 ar
  29   15   36 1
  30   17   18 1
  31   18   37 1
  32   18   38 1
  33   18   39 1
  34   19   20 1
  35   19   40 1
  36   20   21 ar
  37   20   25 ar
  38   21   22 ar
  39   21   27 1
  40   22   23 ar
  41   22   41 1
  42   23   24 ar
  43   23   26 1
  44   24   25 ar
  45   24   42 1
  46   25   43 1

#	End of record

