#	Name: ASD00842132
#	Creating user name:	WinNT
#	Creation time:	15. 06. 2019 18:43

#	Modifying user name:	WinNT
#	Modification time:	15. 06. 2019 18:43

#	Program:	/corina/corina34_cracker 3.40 0067  02.08.2006

@<TRIPOS>MOLECULE
ASD00842132
  91   96    0    0    0
SMALL
NO_CHARGES


@<TRIPOS>ATOM
   1 F1             6.0915    -1.6068    -1.9902 F       
   2 C2             0.9887     1.5632    -0.3549 C.ar    
   3 C3             1.3022     0.2368    -0.6129 C.ar    
   4 C4             1.2429    -0.6992     0.4097 C.ar    
   5 C5             0.8720    -0.3084     1.6814 C.ar    
   6 C6             0.5594     1.0145     1.9360 C.ar    
   7 C7             0.6182     1.9490     0.9190 C.ar    
   8 C8             1.5824    -2.1411     0.1328 C.3     
   9 C9             1.3248    -2.9914     1.3585 C.2     
  10 C10            0.7762    -2.6608    -1.0592 C.3     
  11 C11           -0.6931    -2.4420    -0.8056 C.2     
  12 N12           -1.6050    -2.9099    -1.6808 N.am    
  13 O13           -1.0550    -1.8448     0.1860 O.2     
  14 C14           -3.0325    -2.6080    -1.5077 C.3     
  15 C15           -3.8188    -3.9227    -1.5132 C.3     
  16 C16           -3.4915    -4.7028    -2.7885 C.3     
  17 C17           -1.9975    -5.0334    -2.8170 C.3     
  18 C18           -1.1899    -3.7266    -2.8295 C.3     
  19 C19           -4.3013    -6.0007    -2.8140 C.3     
  20 C20           -5.7965    -5.6715    -2.7872 C.3     
  21 C21           -6.6014    -6.9702    -2.8744 C.3     
  22 N22           -6.2597    -7.6770    -4.1154 N.3     
  23 C23           -4.8384    -8.0453    -4.1426 C.3     
  24 C24           -3.9809    -6.7787    -4.0933 C.3     
  25 C25           -7.1132    -8.8581    -4.3006 C.3     
  26 O26            0.2571    -3.1550     1.9102 O.2     
  27 N27            2.5008    -3.5315     1.7198 N.am    
  28 C28            3.0646    -2.2973    -0.1184 C.ar    
  29 C29            3.5422    -3.1442     0.8739 C.ar    
  30 C30            3.9107    -1.7829    -1.0748 C.ar    
  31 C31            5.2574    -2.1096    -1.0539 C.ar    
  32 C32            5.7453    -2.9534    -0.0691 C.ar    
  33 C33            4.8966    -3.4693     0.8901 C.ar    
  34 Cl34           7.4319    -3.3640    -0.0411 Cl      
  35 C35            2.4471    -6.1864     2.4431 C.ar    
  36 C36            3.5194    -6.9221     1.9742 C.ar    
  37 C37            1.1827    -6.7446     2.4651 C.ar    
  38 C38            0.9904    -8.0385     2.0183 C.ar    
  39 C39            2.0626    -8.7741     1.5490 C.ar    
  40 C40            3.3271    -8.2159     1.5270 C.ar    
  41 H41            1.9125    -9.7850     1.1999 H       
  42 H42            4.5072    -6.4861     1.9570 H       
  43 C43           -6.8142    -9.4955    -5.6590 C.3     
  44 C44           -6.8309    -9.8708    -3.1890 C.3     
  45 S45            2.6933    -4.5396     3.0195 S.o2    
  46 O46            4.0594    -4.4476     3.3997 O.2     
  47 O47            1.6191    -4.2602     3.9067 O.2     
  48 O48            1.6665    -0.1453    -1.8652 O.3     
  49 C49            2.1364     0.2642    -4.2001 C.3     
  50 C50            1.5971     0.8461    -2.8919 C.3     
  51 H51            1.0384     2.2944    -1.1481 H       
  52 H52            0.8257    -1.0366     2.4777 H       
  53 H53            0.2689     1.3179     2.9309 H       
  54 H54            0.3736     2.9816     1.1203 H       
  55 H55            1.0732    -2.1243    -1.9604 H       
  56 H56            0.9675    -3.7258    -1.1907 H       
  57 H57           -3.1849    -2.0950    -0.5581 H       
  58 H58           -3.3739    -1.9746    -2.3265 H       
  59 H59           -3.5411    -4.5163    -0.6422 H       
  60 H60           -4.8869    -3.7079    -1.4822 H       
  61 H61           -3.7464    -4.0988    -3.6592 H       
  62 H62           -1.7370    -5.6166    -1.9338 H       
  63 H63           -1.7694    -5.6092    -3.7140 H       
  64 H64           -1.3822    -3.1870    -3.7568 H       
  65 H65           -0.1267    -3.9533    -2.7499 H       
  66 H66           -4.0461    -6.6065    -1.9446 H       
  67 H67           -6.0387    -5.1548    -1.8585 H       
  68 H68           -6.0437    -5.0326    -3.6350 H       
  69 H69           -6.3640    -7.6027    -2.0190 H       
  70 H70           -7.6664    -6.7383    -2.8699 H       
  71 H71           -4.6093    -8.6728    -3.2813 H       
  72 H72           -4.6230    -8.5943    -5.0593 H       
  73 H73           -4.1995    -6.1572    -4.9616 H       
  74 H74           -2.9260    -7.0531    -4.0978 H       
  75 H75           -8.1607    -8.5591    -4.2623 H       
  76 H76            3.5255    -1.1259    -1.8405 H       
  77 H77            5.2838    -4.1265     1.6548 H       
  78 H78            0.3450    -6.1698     2.8317 H       
  79 H79            0.0027    -8.4748     2.0361 H       
  80 H80            4.1648    -8.7908     1.1607 H       
  81 H81           -5.7667    -9.7945    -5.6974 H       
  82 H82           -7.4475   -10.3719    -5.7965 H       
  83 H83           -7.0154    -8.7741    -6.4510 H       
  84 H84           -5.7834   -10.1698    -3.2273 H       
  85 H85           -7.0439    -9.4167    -2.2212 H       
  86 H86           -7.4642   -10.7472    -3.3264 H       
  87 H87            3.1425    -0.1226    -4.0382 H       
  88 H88            1.4857    -0.5442    -4.5337 H       
  89 H89            2.1652     1.0447    -4.9604 H       
  90 H90            0.5606     1.1533    -3.0310 H       
  91 H91            2.1965     1.7098    -2.6041 H       
@<TRIPOS>BOND
   1    1   31 1
   2    2    3 ar
   3    2    7 ar
   4    2   51 1
   5    3    4 ar
   6    3   48 1
   7    4    5 ar
   8    4    8 1
   9    5    6 ar
  10    5   52 1
  11    6    7 ar
  12    6   53 1
  13    7   54 1
  14    8    9 1
  15    8   10 1
  16    8   28 1
  17    9   26 2
  18    9   27 am
  19   10   11 1
  20   10   55 1
  21   10   56 1
  22   11   12 am
  23   11   13 2
  24   12   14 1
  25   12   18 1
  26   14   15 1
  27   14   57 1
  28   14   58 1
  29   15   16 1
  30   15   59 1
  31   15   60 1
  32   16   17 1
  33   16   19 1
  34   16   61 1
  35   17   18 1
  36   17   62 1
  37   17   63 1
  38   18   64 1
  39   18   65 1
  40   19   20 1
  41   19   24 1
  42   19   66 1
  43   20   21 1
  44   20   67 1
  45   20   68 1
  46   21   22 1
  47   21   69 1
  48   21   70 1
  49   22   23 1
  50   22   25 1
  51   23   24 1
  52   23   71 1
  53   23   72 1
  54   24   73 1
  55   24   74 1
  56   25   43 1
  57   25   44 1
  58   25   75 1
  59   27   45 am
  60   27   29 1
  61   28   29 ar
  62   28   30 ar
  63   29   33 ar
  64   30   31 ar
  65   30   76 1
  66   31   32 ar
  67   32   33 ar
  68   32   34 1
  69   33   77 1
  70   35   36 ar
  71   35   37 ar
  72   35   45 1
  73   36   42 1
  74   36   40 ar
  75   37   38 ar
  76   37   78 1
  77   38   39 ar
  78   38   79 1
  79   39   40 ar
  80   39   41 1
  81   40   80 1
  82   43   81 1
  83   43   82 1
  84   43   83 1
  85   44   84 1
  86   44   85 1
  87   44   86 1
  88   45   46 2
  89   45   47 2
  90   48   50 1
  91   49   50 1
  92   49   87 1
  93   49   88 1
  94   49   89 1
  95   50   90 1
  96   50   91 1

#	End of record

