#	Name: ASD02030269
#	Creating user name:	WinNT
#	Creation time:	15. 06. 2019 20:14

#	Modifying user name:	WinNT
#	Modification time:	15. 06. 2019 20:14

#	Program:	/corina/corina34_cracker 3.40 0067  02.08.2006

@<TRIPOS>MOLECULE
ASD02030269
  58   61    0    0    0
SMALL
NO_CHARGES


@<TRIPOS>ATOM
   1 N1            -0.6860     1.1739     0.5246 N.am    
   2 C2            -0.7228    -0.2918     0.4235 C.3     
   3 C3            -1.2028    -0.6742    -0.9820 C.3     
   4 N4            -2.4226     0.0875    -1.2851 N.am    
   5 C5            -2.3857     1.5532    -1.1841 C.3     
   6 C6            -1.9072     1.9353     0.2269 C.3     
   7 C7             0.4460     1.8081     0.8891 C.2     
   8 C8             1.6129     1.0288     1.3545 C.2     
   9 N9             2.7573     1.5246     1.7733 N.2     
  10 N10            1.6896    -0.3126     1.4298 N.2     
  11 C11            2.8792    -0.6090     1.8878 C.2     
  12 N12            3.5356     0.5504     2.0980 N.pl3   
  13 C13            4.8433     0.6745     2.5864 C.ar    
  14 O14            0.5075     3.0210     0.8353 O.2     
  15 C15           -3.5545    -0.5467    -1.6497 C.2     
  16 C16           -3.5183    -1.9869    -1.9954 C.ar    
  17 O17           -4.6049     0.0627    -1.6948 O.2     
  18 C18            5.4049     1.9321     2.7578 C.ar    
  19 C19            6.6961     2.0511     3.2406 C.ar    
  20 C20            7.4265     0.9165     3.5521 C.ar    
  21 C21            6.8679    -0.3367     3.3812 C.ar    
  22 C22            5.5774    -0.4606     2.9050 C.ar    
  23 N23           -2.3494    -2.6085    -2.1027 N.ar    
  24 F24            7.2445     3.2743     3.4077 F       
  25 C25           -2.2741    -3.8896    -2.4086 C.ar    
  26 C26           -3.4272    -4.6378    -2.6308 C.ar    
  27 C27           -4.6631    -4.0242    -2.5279 C.ar    
  28 C28           -4.7094    -2.6771    -2.1991 C.ar    
  29 O29           -1.0590    -4.4848    -2.5084 O.3     
  30 C30            0.0866    -3.6647    -2.2696 C.3     
  31 C31           -3.7874     2.1196    -1.4198 C.3     
  32 C32           -3.7337     3.6480    -1.3770 C.3     
  33 C33           -5.1069     4.2169    -1.7397 C.3     
  34 H34            0.2758    -0.6953     0.5914 H       
  35 H35           -1.4117    -0.6926     1.1670 H       
  36 H36           -0.4296    -0.4320    -1.7112 H       
  37 H37           -1.4202    -1.7418    -1.0165 H       
  38 H38           -1.6968     1.9540    -1.9276 H       
  39 H39           -2.6821     1.6928     0.9541 H       
  40 H40           -1.6895     3.0027     0.2628 H       
  41 H41            3.2644    -1.6019     2.0675 H       
  42 H42            4.8350     2.8166     2.5143 H       
  43 H43            8.4342     1.0107     3.9289 H       
  44 H44            7.4400    -1.2199     3.6243 H       
  45 H45            5.1425    -1.4401     2.7720 H       
  46 H46           -3.3576    -5.6861    -2.8812 H       
  47 H47           -5.5721    -4.5828    -2.6955 H       
  48 H48           -5.6580    -2.1682    -2.1108 H       
  49 H49            0.1024    -2.8447    -2.9875 H       
  50 H50            0.0403    -3.2613    -1.2581 H       
  51 H51            0.9911    -4.2627    -2.3812 H       
  52 H52           -4.1508     1.7959    -2.3951 H       
  53 H53           -4.4608     1.7578    -0.6428 H       
  54 H54           -3.4588     3.9740    -0.3739 H       
  55 H55           -2.9921     4.0056    -2.0913 H       
  56 H56           -5.3818     3.8909    -2.7428 H       
  57 H57           -5.8485     3.8593    -1.0254 H       
  58 H58           -5.0687     5.3058    -1.7093 H       
@<TRIPOS>BOND
   1    1    2 1
   2    1    7 am
   3    1    6 1
   4    2    3 1
   5    2   34 1
   6    2   35 1
   7    3    4 1
   8    3   36 1
   9    3   37 1
  10    4    5 1
  11    4   15 am
  12    5    6 1
  13    5   31 1
  14    5   38 1
  15    6   39 1
  16    6   40 1
  17    7    8 1
  18    7   14 2
  19    8    9 2
  20    8   10 1
  21    9   12 1
  22   10   11 2
  23   11   12 1
  24   11   41 1
  25   12   13 1
  26   13   18 ar
  27   13   22 ar
  28   15   16 1
  29   15   17 2
  30   16   23 ar
  31   16   28 ar
  32   18   19 ar
  33   18   42 1
  34   19   20 ar
  35   19   24 1
  36   20   21 ar
  37   20   43 1
  38   21   22 ar
  39   21   44 1
  40   22   45 1
  41   23   25 ar
  42   25   26 ar
  43   25   29 1
  44   26   27 ar
  45   26   46 1
  46   27   28 ar
  47   27   47 1
  48   28   48 1
  49   29   30 1
  50   30   49 1
  51   30   50 1
  52   30   51 1
  53   31   32 1
  54   31   52 1
  55   31   53 1
  56   32   33 1
  57   32   54 1
  58   32   55 1
  59   33   56 1
  60   33   57 1
  61   33   58 1

#	End of record

