#	Name: ASD01940444
#	Creating user name:	WinNT
#	Creation time:	15. 06. 2019 20:12

#	Modifying user name:	WinNT
#	Modification time:	15. 06. 2019 20:12

#	Program:	/corina/corina34_cracker 3.40 0067  02.08.2006

@<TRIPOS>MOLECULE
ASD01940444
  29   29    0    0    0
SMALL
NO_CHARGES


@<TRIPOS>ATOM
   1 C1            -0.0179     1.4714     0.0101 C.2     
   2 C2             0.0021    -0.0041     0.0020 C.ar    
   3 C3             1.2187    -0.6856    -0.0133 C.ar    
   4 C4             1.2285    -2.0828    -0.0204 C.ar    
   5 C5             0.0151    -2.7873    -0.0121 C.ar    
   6 C6            -1.1861    -2.0995     0.0026 C.ar    
   7 C7            -1.1992    -0.7207     0.0155 C.ar    
   8 O8             1.0258     2.0931     0.0035 O.2     
   9 O9            -1.1938     2.1291     0.0193 O.3     
  10 C10            2.5044    -2.8114    -0.0369 C.2     
  11 O11            2.5101    -4.0242    -0.0431 O.2     
  12 F12            0.0191    -4.1383    -0.0189 F       
  13 Br13           2.8467     0.2762    -0.0249 Br      
  14 C14           -1.1374     3.5800     0.0269 C.3     
  15 C15           -0.4029     4.0685    -1.2232 C.3     
  16 C16           -2.5591     4.1455     0.0367 C.3     
  17 C17           -0.3910     4.0549     1.2752 C.3     
  18 H18           -2.1178    -2.6457     0.0082 H       
  19 H19           -2.1407    -0.1919     0.0318 H       
  20 H20            3.4371    -2.2670    -0.0437 H       
  21 H21           -0.9346     3.7302    -2.1125 H       
  22 H22           -0.3606     5.1576    -1.2175 H       
  23 H23            0.6099     3.6656    -1.2302 H       
  24 H24           -3.0824     3.7976     0.9273 H       
  25 H25           -2.5168     5.2347     0.0424 H       
  26 H26           -3.0908     3.8072    -0.8526 H       
  27 H27            0.6217     3.6520     1.2682 H       
  28 H28           -0.3488     5.1441     1.2809 H       
  29 H29           -0.9144     3.7069     2.1658 H       
@<TRIPOS>BOND
   1    1    2 1
   2    1    8 2
   3    1    9 1
   4    2    3 ar
   5    2    7 ar
   6    3    4 ar
   7    3   13 1
   8    4    5 ar
   9    4   10 1
  10    5    6 ar
  11    5   12 1
  12    6    7 ar
  13    6   18 1
  14    7   19 1
  15    9   14 1
  16   10   11 2
  17   10   20 1
  18   14   15 1
  19   14   17 1
  20   14   16 1
  21   15   21 1
  22   15   22 1
  23   15   23 1
  24   16   24 1
  25   16   25 1
  26   16   26 1
  27   17   27 1
  28   17   28 1
  29   17   29 1

#	End of record

