#	Name: ASD04430056
#	Creating user name:	WinNT
#	Creation time:	15. 06. 2019 20:49

#	Modifying user name:	WinNT
#	Modification time:	15. 06. 2019 20:49

#	Program:	/corina/corina34_cracker 3.40 0067  02.08.2006

@<TRIPOS>MOLECULE
ASD04430056
  45   47    0    0    0
SMALL
NO_CHARGES


@<TRIPOS>ATOM
   1 C1             0.0170     1.2668     0.5337 C.2     
   2 N2             0.0260    -0.0261     0.3886 N.2     
   3 C3             1.1607    -0.7061     0.1649 C.2     
   4 C4             2.3746    -0.0053     0.0846 C.2     
   5 C5             2.3436     1.4477     0.2504 C.2     
   6 N6             1.1399     2.0261     0.4718 N.am    
   7 N7             2.8417    -2.1349    -0.2127 N.2     
   8 N8             1.4590    -2.0213    -0.0200 N.pl3   
   9 C9             3.3890    -0.9518    -0.1526 C.2     
  10 O10            3.3629     2.1125     0.1912 O.2     
  11 C11            0.5411    -3.0792    -0.0175 C.ar    
  12 C12            0.7879    -4.2129     0.7460 C.ar    
  13 C13           -0.1192    -5.2540     0.7467 C.ar    
  14 C14           -1.2724    -5.1688    -0.0122 C.ar    
  15 C15           -1.5210    -4.0416    -0.7733 C.ar    
  16 C16           -0.6202    -2.9944    -0.7738 C.ar    
  17 C17            2.0447    -4.3069     1.5723 C.3     
  18 C18            1.8617    -3.5178     2.8703 C.3     
  19 C19           -1.3024     1.9536     0.7757 C.3     
  20 C20           -2.4227     0.9118     0.8002 C.3     
  21 C21           -3.7430     1.5913     1.1689 C.3     
  22 C22           -4.8378     0.5327     1.3155 C.3     
  23 C23           -2.5495     0.2667    -0.5814 C.3     
  24 H24            1.0798     2.9874     0.5867 H       
  25 H25            4.4411    -0.7358    -0.2654 H       
  26 H26            0.0721    -6.1358     1.3401 H       
  27 H27           -1.9800    -5.9847    -0.0105 H       
  28 H28           -2.4222    -3.9783    -1.3651 H       
  29 H29           -0.8169    -2.1124    -1.3652 H       
  30 H30            2.2474    -5.3517     1.8078 H       
  31 H31            2.8812    -3.8922     1.0099 H       
  32 H32            1.6590    -2.4730     2.6349 H       
  33 H33            1.0252    -3.9324     3.4328 H       
  34 H34            2.7707    -3.5858     3.4680 H       
  35 H35           -1.2704     2.4753     1.7322 H       
  36 H36           -1.4906     2.6708    -0.0232 H       
  37 H37           -2.1898     0.1451     1.5392 H       
  38 H38           -3.6257     2.1256     2.1117 H       
  39 H39           -4.0209     2.2952     0.3845 H       
  40 H40           -4.9551    -0.0017     0.3727 H       
  41 H41           -4.5599    -0.1712     2.1000 H       
  42 H42           -5.7784     1.0167     1.5782 H       
  43 H43           -1.6089    -0.2174    -0.8441 H       
  44 H44           -3.3476    -0.4754    -0.5639 H       
  45 H45           -2.7824     1.0334    -1.3203 H       
@<TRIPOS>BOND
   1    1    2 2
   2    1    6 1
   3    1   19 1
   4    2    3 1
   5    3    4 2
   6    3    8 1
   7    4    5 1
   8    4    9 1
   9    5    6 am
  10    5   10 2
  11    6   24 1
  12    7    8 1
  13    7    9 2
  14    8   11 1
  15    9   25 1
  16   11   12 ar
  17   11   16 ar
  18   12   13 ar
  19   12   17 1
  20   13   14 ar
  21   13   26 1
  22   14   15 ar
  23   14   27 1
  24   15   16 ar
  25   15   28 1
  26   16   29 1
  27   17   18 1
  28   17   30 1
  29   17   31 1
  30   18   32 1
  31   18   33 1
  32   18   34 1
  33   19   20 1
  34   19   35 1
  35   19   36 1
  36   20   21 1
  37   20   23 1
  38   20   37 1
  39   21   22 1
  40   21   38 1
  41   21   39 1
  42   22   40 1
  43   22   41 1
  44   22   42 1
  45   23   43 1
  46   23   44 1
  47   23   45 1

#	End of record

