#	Name: ASD02030283
#	Creating user name:	WinNT
#	Creation time:	15. 06. 2019 20:15

#	Modifying user name:	WinNT
#	Modification time:	15. 06. 2019 20:15

#	Program:	/corina/corina34_cracker 3.40 0067  02.08.2006

@<TRIPOS>MOLECULE
ASD02030283
  59   63    0    0    0
SMALL
NO_CHARGES


@<TRIPOS>ATOM
   1 N1            -0.0847     1.2590     0.3897 N.am    
   2 C2            -0.3109    -0.1931     0.4037 C.3     
   3 C3            -1.3537    -0.5163     1.4809 C.3     
   4 N4            -2.5060     0.3782     1.3025 N.am    
   5 C5            -2.2798     1.8303     1.2884 C.3     
   6 C6            -1.2378     2.1537     0.2168 C.3     
   7 C7             1.1571     1.7613     0.5383 C.2     
   8 C8             2.2876     0.8591     0.8443 C.2     
   9 N9             3.5166     1.2293     1.1329 N.2     
  10 N10            2.2395    -0.4851     0.8824 N.2     
  11 C11            3.4394    -0.9088     1.1880 C.2     
  12 N12            4.2275     0.1751     1.3417 N.pl3   
  13 C13            5.5892     0.1576     1.6725 C.ar    
  14 O14            1.3475     2.9561     0.4207 O.2     
  15 C15           -3.7478    -0.1241     1.1539 C.2     
  16 C16           -3.9470    -1.5777     1.0671 C.2     
  17 O17           -4.7038     0.6257     1.0916 O.2     
  18 C18            6.2889     1.3495     1.8010 C.ar    
  19 C19            7.6322     1.3287     2.1274 C.ar    
  20 C20            8.2785     0.1213     2.3253 C.ar    
  21 C21            7.5832    -1.0672     2.1973 C.ar    
  22 C22            6.2397    -1.0521     1.8779 C.ar    
  23 C23           -0.7869     3.6086     0.3615 C.3     
  24 Cl24           8.5088     2.8185     2.2886 Cl      
  25 C25           -5.1255    -2.1893     0.7820 C.2     
  26 O26           -2.9852    -2.5058     1.2531 O.3     
  27 C27           -3.4832    -3.7489     1.1064 C.ar    
  28 C28           -4.8519    -3.6258     0.8032 C.ar    
  29 C29           -2.9204    -5.0171     1.1946 C.ar    
  30 C30           -3.7044    -6.1314     0.9889 C.ar    
  31 C31           -5.0550    -6.0042     0.6933 C.ar    
  32 C32           -5.6292    -4.7682     0.5971 C.ar    
  33 C33           -6.4476    -1.5228     0.5012 C.3     
  34 O34           -6.5677    -1.2747    -0.9010 O.3     
  35 C35           -7.7925    -0.6416    -1.2765 C.3     
  36 H36           -0.6791    -0.5154    -0.5703 H       
  37 H37            0.6229    -0.7066     0.6328 H       
  38 H38           -1.6758    -1.5526     1.3790 H       
  39 H39           -0.9195    -0.3611     2.4686 H       
  40 H40           -3.2136     2.3438     1.0593 H       
  41 H41           -1.9116     2.1526     2.2624 H       
  42 H42           -1.6695     1.9985    -0.7719 H       
  43 H43            3.7429    -1.9392     1.3000 H       
  44 H44            5.7847     2.2919     1.6459 H       
  45 H45            9.3280     0.1070     2.5799 H       
  46 H46            8.0904    -2.0081     2.3516 H       
  47 H47            5.6975    -1.9809     1.7785 H       
  48 H48           -0.2492     3.7305     1.3018 H       
  49 H49           -0.1307     3.8699    -0.4687 H       
  50 H50           -1.6594     4.2618     0.3545 H       
  51 H51           -1.8708    -5.1286     1.4236 H       
  52 H52           -3.2633    -7.1148     1.0580 H       
  53 H53           -5.6549    -6.8881     0.5346 H       
  54 H54           -6.6803    -4.6749     0.3673 H       
  55 H55           -7.2591    -2.1742     0.8257 H       
  56 H56           -6.5009    -0.5785     1.0431 H       
  57 H57           -8.6319    -1.2747    -0.9888 H       
  58 H58           -7.8736     0.3210    -0.7715 H       
  59 H59           -7.8063    -0.4880    -2.3555 H       
@<TRIPOS>BOND
   1    1    2 1
   2    1    7 am
   3    1    6 1
   4    2    3 1
   5    2   36 1
   6    2   37 1
   7    3    4 1
   8    3   38 1
   9    3   39 1
  10    4    5 1
  11    4   15 am
  12    5    6 1
  13    5   40 1
  14    5   41 1
  15    6   23 1
  16    6   42 1
  17    7    8 1
  18    7   14 2
  19    8    9 2
  20    8   10 1
  21    9   12 1
  22   10   11 2
  23   11   12 1
  24   11   43 1
  25   12   13 1
  26   13   18 ar
  27   13   22 ar
  28   15   16 1
  29   15   17 2
  30   16   26 1
  31   16   25 2
  32   18   19 ar
  33   18   44 1
  34   19   20 ar
  35   19   24 1
  36   20   21 ar
  37   20   45 1
  38   21   22 ar
  39   21   46 1
  40   22   47 1
  41   23   48 1
  42   23   49 1
  43   23   50 1
  44   25   33 1
  45   25   28 1
  46   26   27 1
  47   27   28 ar
  48   27   29 ar
  49   28   32 ar
  50   29   30 ar
  51   29   51 1
  52   30   31 ar
  53   30   52 1
  54   31   32 ar
  55   31   53 1
  56   32   54 1
  57   33   34 1
  58   33   55 1
  59   33   56 1
  60   34   35 1
  61   35   57 1
  62   35   58 1
  63   35   59 1

#	End of record

