#	Name: ASD00844024
#	Creating user name:	WinNT
#	Creation time:	15. 06. 2019 18:48

#	Modifying user name:	WinNT
#	Modification time:	15. 06. 2019 18:48

#	Program:	/corina/corina34_cracker 3.40 0067  02.08.2006

@<TRIPOS>MOLECULE
ASD00844024
  86   91    0    0    0
SMALL
NO_CHARGES


@<TRIPOS>ATOM
   1 F1            -0.0973    -3.1246     4.7250 F       
   2 N2            -0.0159     1.3183     0.0093 N.ar    
   3 C3             0.0021    -0.0041     0.0020 C.ar    
   4 C4             1.2069    -0.6955    -0.0132 C.ar    
   5 C5             2.3925     0.0180    -0.0207 C.ar    
   6 C6             2.3308     1.4049    -0.0127 C.ar    
   7 C7             1.0980     2.0259     0.0025 C.ar    
   8 C8             1.2224    -2.2024    -0.0209 C.3     
   9 C9             0.4764    -2.7341    -1.2259 C.2     
  10 O10            2.5880    -2.6957    -0.0100 O.3     
  11 C11            3.3812    -2.3219    -1.0317 C.2     
  12 N12            4.6598    -2.7450    -1.0818 N.am    
  13 O13            2.9442    -1.6031    -1.9086 O.2     
  14 C14            5.5433    -2.3485    -2.1889 C.3     
  15 C15            6.8402    -1.7847    -1.5987 C.3     
  16 N16            7.4150    -2.7623    -0.6649 N.3     
  17 C17            6.5189    -3.0017     0.4742 C.3     
  18 C18            5.2105    -3.6104    -0.0278 C.3     
  19 N19            8.7308    -2.3398    -0.2129 N.3     
  20 C20            9.3058    -3.3177     0.7213 C.3     
  21 C21           10.7191    -2.8775     1.1105 C.3     
  22 N22           10.6628    -1.5414     1.7198 N.3     
  23 C23           10.0878    -0.5635     0.7856 C.3     
  24 C24            8.6746    -1.0037     0.3964 C.3     
  25 H25           10.1463    -1.5607     2.5864 H       
  26 O26            0.7566    -2.5392    -2.3898 O.2     
  27 N27           -0.5539    -3.4627    -0.7649 N.am    
  28 C28            0.4505    -2.7460     1.1600 C.ar    
  29 C29           -0.5988    -3.4907     0.6311 C.ar    
  30 C30            0.6193    -2.6223     2.5215 C.ar    
  31 C31           -0.2615    -3.2439     3.3894 C.ar    
  32 C32           -1.3224    -3.9967     2.8756 C.ar    
  33 C33           -1.4874    -4.1183     1.4962 C.ar    
  34 C34           -1.0160    -5.8566    -2.0415 C.ar    
  35 C35            0.1627    -6.0201    -2.7551 C.ar    
  36 C36           -1.6940    -6.9615    -1.5626 C.ar    
  37 C37           -1.2001    -8.2311    -1.7925 C.ar    
  38 C38           -0.0215    -8.3999    -2.5058 C.ar    
  39 C39            0.6602    -7.2933    -2.9876 C.ar    
  40 O40            0.4636    -9.6490    -2.7321 O.3     
  41 O41            0.8288    -4.9332    -3.2262 O.3     
  42 C42            2.0353    -5.1761    -3.9523 C.3     
  43 C43           -0.2910   -10.7430    -2.2068 C.3     
  44 C44           -2.2386    -4.6434     3.7661 C.1     
  45 N45           -2.9655    -5.1564     4.4724 N.1     
  46 O46           -1.1673    -0.6919     0.0099 O.3     
  47 C47           -2.3720     0.0766     0.0260 C.3     
  48 C48           -3.5777    -0.8652     0.0330 C.3     
  49 F49           -3.5507    -1.6659    -1.1140 F       
  50 F50           -3.5280    -1.6782     1.1704 F       
  51 S51           -1.6450    -4.2387    -1.7395 S.o2    
  52 O52           -2.8259    -4.4051    -0.9668 O.2     
  53 O53           -1.6221    -3.5598    -2.9876 O.2     
  54 H54            3.3442    -0.4925    -0.0322 H       
  55 H55            3.2375     1.9916    -0.0178 H       
  56 H56            1.0444     3.1046     0.0084 H       
  57 H57            5.7695    -3.2179    -2.8062 H       
  58 H58            5.0534    -1.5846    -2.7927 H       
  59 H59            7.5502    -1.5882    -2.4022 H       
  60 H60            6.6253    -0.8574    -1.0678 H       
  61 H61            6.9958    -3.6879     1.1742 H       
  62 H62            6.3084    -2.0574     0.9762 H       
  63 H63            4.5008    -3.6834     0.7962 H       
  64 H64            5.4018    -4.6016    -0.4390 H       
  65 H65            8.6842    -3.3763     1.6147 H       
  66 H66            9.3485    -4.2962     0.2428 H       
  67 H67           11.1366    -3.5861     1.8258 H       
  68 H68           11.3479    -2.8453     0.2208 H       
  69 H69           10.0451     0.4149     1.2641 H       
  70 H70           10.7095    -0.5050    -0.1078 H       
  71 H71            8.2570    -0.2951    -0.3190 H       
  72 H72            8.0457    -1.0360     1.2861 H       
  73 H73            1.4404    -2.0397     2.9122 H       
  74 H74           -2.3067    -4.6997     1.0998 H       
  75 H75           -2.6113    -6.8323    -1.0074 H       
  76 H76           -1.7314    -9.0930    -1.4166 H       
  77 H77            1.5773    -7.4225    -3.5432 H       
  78 H78            1.8157    -5.7872    -4.8278 H       
  79 H79            2.4653    -4.2265    -4.2707 H       
  80 H80            2.7453    -5.7001    -3.3124 H       
  81 H81           -0.3621   -10.6482    -1.1233 H       
  82 H82           -1.2917   -10.7347    -2.6388 H       
  83 H83            0.2054   -11.6804    -2.4577 H       
  84 H84           -2.3931     0.7004     0.9196 H       
  85 H85           -2.4108     0.7099    -0.8602 H       
  86 H86           -4.4966    -0.2790     0.0452 H       
@<TRIPOS>BOND
   1    1   31 1
   2    2    3 ar
   3    2    7 ar
   4    3    4 ar
   5    3   46 1
   6    4    5 ar
   7    4    8 1
   8    5    6 ar
   9    5   54 1
  10    6    7 ar
  11    6   55 1
  12    7   56 1
  13    8    9 1
  14    8   10 1
  15    8   28 1
  16    9   26 2
  17    9   27 am
  18   10   11 1
  19   11   12 am
  20   11   13 2
  21   12   14 1
  22   12   18 1
  23   14   15 1
  24   14   57 1
  25   14   58 1
  26   15   16 1
  27   15   59 1
  28   15   60 1
  29   16   17 1
  30   16   19 1
  31   17   18 1
  32   17   61 1
  33   17   62 1
  34   18   63 1
  35   18   64 1
  36   19   20 1
  37   19   24 1
  38   20   21 1
  39   20   65 1
  40   20   66 1
  41   21   22 1
  42   21   67 1
  43   21   68 1
  44   22   23 1
  45   22   25 1
  46   23   24 1
  47   23   69 1
  48   23   70 1
  49   24   71 1
  50   24   72 1
  51   27   51 am
  52   27   29 1
  53   28   29 ar
  54   28   30 ar
  55   29   33 ar
  56   30   31 ar
  57   30   73 1
  58   31   32 ar
  59   32   33 ar
  60   32   44 1
  61   33   74 1
  62   34   35 ar
  63   34   36 ar
  64   34   51 1
  65   35   41 1
  66   35   39 ar
  67   36   37 ar
  68   36   75 1
  69   37   38 ar
  70   37   76 1
  71   38   39 ar
  72   38   40 1
  73   39   77 1
  74   40   43 1
  75   41   42 1
  76   42   78 1
  77   42   79 1
  78   42   80 1
  79   43   81 1
  80   43   82 1
  81   43   83 1
  82   44   45 3
  83   46   47 1
  84   47   48 1
  85   47   84 1
  86   47   85 1
  87   48   49 1
  88   48   50 1
  89   48   86 1
  90   51   52 2
  91   51   53 2

#	End of record

