#	Name: ASD04590832
#	Creating user name:	WinNT
#	Creation time:	15. 06. 2019 20:51

#	Modifying user name:	WinNT
#	Modification time:	15. 06. 2019 20:51

#	Program:	/corina/corina34_cracker 3.40 0067  02.08.2006

@<TRIPOS>MOLECULE
ASD04590832
  58   63    0    0    0
SMALL
NO_CHARGES


@<TRIPOS>ATOM
   1 N1            -0.0170     1.3232    -0.0111 N.ar    
   2 C2             0.0017    -0.0035    -0.0048 C.ar    
   3 N3             1.1298    -0.6949    -0.0118 N.ar    
   4 C4             2.3050    -0.0729    -0.0258 C.ar    
   5 C5             2.3189     1.3365    -0.0332 C.ar    
   6 C6             1.1072     2.0202    -0.0250 C.ar    
   7 N7             3.6031    -0.5196    -0.0360 N.pl3   
   8 C8             4.4823     0.5494    -0.0500 C.ar    
   9 C9             3.7313     1.7384    -0.0489 C.ar    
  10 C10            5.8680     0.6417    -0.0647 C.ar    
  11 N11            6.4613     1.8179    -0.0768 N.ar    
  12 C12            5.7851     2.9531    -0.0761 C.ar    
  13 C13            4.4064     2.9583    -0.0616 C.ar    
  14 N14           -1.2020    -0.6888     0.0098 N.pl3   
  15 C15           -2.4018     0.0119     0.1303 C.ar    
  16 N16           -2.3891     1.3196     0.3310 N.ar    
  17 N17           -3.4690     2.0034     0.4477 N.ar    
  18 C18           -4.6660     1.4477     0.3753 C.ar    
  19 C19           -4.7827     0.0746     0.1657 C.ar    
  20 C20           -3.6190    -0.6634     0.0339 C.ar    
  21 O21           -5.7801     2.2130     0.5052 O.3     
  22 C22           -6.7605     4.3902     0.1210 C.3     
  23 C23           -5.5846     3.6124     0.7185 C.3     
  24 C24            4.0017    -1.9293    -0.0322 C.3     
  25 C25            3.4613    -2.6265     1.2287 C.3     
  26 C26            2.5280    -3.7546     0.7427 C.3     
  27 C27            3.0200    -4.0624    -0.6934 C.3     
  28 C28            3.3780    -2.6582    -1.2403 C.3     
  29 C29           -6.5760     5.8825     0.4056 C.3     
  30 N30           -6.5081     6.1007     1.8562 N.3     
  31 C31           -5.3588     5.4017     2.4451 C.3     
  32 C32           -5.5069     3.8950     2.2214 C.3     
  33 H33            1.0849     3.0999    -0.0300 H       
  34 H34            6.4645    -0.2587    -0.0658 H       
  35 H35            6.3204     3.8910    -0.0864 H       
  36 H36            3.8598     3.8897    -0.0613 H       
  37 H37           -1.2104    -1.6559    -0.0637 H       
  38 H38           -5.7516    -0.3984     0.1039 H       
  39 H39           -3.6521    -1.7303    -0.1302 H       
  40 H40           -6.7951     4.2267    -0.9562 H       
  41 H41           -7.6912     4.0460     0.5720 H       
  42 H42           -4.6579     3.9280     0.2391 H       
  43 H43            5.0882    -2.0100    -0.0667 H       
  44 H44            4.2854    -3.0461     1.8056 H       
  45 H45            2.9024    -1.9159     1.8377 H       
  46 H46            2.6304    -4.6345     1.3778 H       
  47 H47            1.4930    -3.4130     0.7264 H       
  48 H48            3.9007    -4.7042    -0.6708 H       
  49 H49            2.2250    -4.5162    -1.2851 H       
  50 H50            2.4803    -2.1395    -1.5768 H       
  51 H51            4.1007    -2.7379    -2.0524 H       
  52 H52           -5.6520     6.2290    -0.0574 H       
  53 H53           -7.4188     6.4376    -0.0061 H       
  54 H54           -6.4820     7.0858     2.0728 H       
  55 H55           -4.4405     5.7505     1.9726 H       
  56 H56           -5.3175     5.6077     3.5147 H       
  57 H57           -6.4179     3.5431     2.7054 H       
  58 H58           -4.6460     3.3778     2.6449 H       
@<TRIPOS>BOND
   1    1    2 ar
   2    1    6 ar
   3    2    3 ar
   4    2   14 1
   5    3    4 ar
   6    4    5 ar
   7    4    7 1
   8    5    6 ar
   9    5    9 1
  10    6   33 1
  11    7    8 1
  12    7   24 1
  13    8    9 ar
  14    8   10 ar
  15    9   13 ar
  16   10   11 ar
  17   10   34 1
  18   11   12 ar
  19   12   13 ar
  20   12   35 1
  21   13   36 1
  22   14   15 1
  23   14   37 1
  24   15   16 ar
  25   15   20 ar
  26   16   17 ar
  27   17   18 ar
  28   18   19 ar
  29   18   21 1
  30   19   20 ar
  31   19   38 1
  32   20   39 1
  33   21   23 1
  34   22   23 1
  35   22   29 1
  36   22   40 1
  37   22   41 1
  38   23   32 1
  39   23   42 1
  40   24   25 1
  41   24   28 1
  42   24   43 1
  43   25   26 1
  44   25   44 1
  45   25   45 1
  46   26   27 1
  47   26   46 1
  48   26   47 1
  49   27   28 1
  50   27   48 1
  51   27   49 1
  52   28   50 1
  53   28   51 1
  54   29   30 1
  55   29   52 1
  56   29   53 1
  57   30   31 1
  58   30   54 1
  59   31   32 1
  60   31   55 1
  61   31   56 1
  62   32   57 1
  63   32   58 1

#	End of record

