#	Name: ASD05130105
#	Creating user name:	WinNT
#	Creation time:	15. 06. 2019 20:56

#	Modifying user name:	WinNT
#	Modification time:	15. 06. 2019 20:56

#	Program:	/corina/corina34_cracker 3.40 0067  02.08.2006

@<TRIPOS>MOLECULE
ASD05130105
  59   62    0    0    0
SMALL
NO_CHARGES


@<TRIPOS>ATOM
   1 C1            -2.2351     1.4434     0.0624 C.2     
   2 C2            -2.1988    -0.0632     0.0597 C.3     
   3 O3            -3.2996     2.0243     0.0750 O.2     
   4 N4            -1.0845     2.1452     0.0565 N.am    
   5 N5             1.1693     6.3904     0.0486 N.am    
   6 C6             1.1152     7.7329    -0.0542 C.2     
   7 C7            -0.1684     8.4055    -0.2689 C.2     
   8 C8            -1.3124     7.6615    -0.3649 C.2     
   9 C9            -1.2290     6.2528    -0.2540 C.ar    
  10 C10           -2.3741     5.4520    -0.3466 C.ar    
  11 N11           -2.2790     4.1447    -0.2408 N.ar    
  12 C12           -1.1163     3.5329    -0.0462 C.ar    
  13 C13            0.0663     4.2491     0.0572 C.ar    
  14 C14            0.0234     5.6354    -0.0468 C.ar    
  15 O15            2.1374     8.3897     0.0322 O.2     
  16 C16           -0.2273     9.8818    -0.3809 C.ar    
  17 C17           -0.4144    10.4815    -1.6263 C.ar    
  18 C18           -0.4695    11.8567    -1.7293 C.ar    
  19 C19           -0.3392    12.6449    -0.5990 C.ar    
  20 C20           -0.1523    12.0545     0.6471 C.ar    
  21 C21           -0.1016    10.6743     0.7586 C.ar    
  22 N22           -0.0207    12.8551     1.7890 N.am    
  23 C23           -0.5235    12.4362     2.9672 C.2     
  24 O24           -1.0179    11.3291     3.0580 O.2     
  25 N25           -0.4782    13.2444     4.0448 N.am    
  26 C26           -0.9128    12.7759     5.2896 C.ar    
  27 C27           -0.2754    13.1922     6.4510 C.ar    
  28 C28           -0.7068    12.7278     7.6782 C.ar    
  29 C29           -1.7719    11.8490     7.7510 C.ar    
  30 C30           -2.4088    11.4326     6.5964 C.ar    
  31 C31           -1.9862    11.8981     5.3666 C.ar    
  32 C32           -0.5558     9.6275    -2.8599 C.3     
  33 F33           -0.3930    13.9906    -0.7059 F       
  34 C34            2.4598     5.7292     0.2578 C.3     
  35 C35            2.7300     5.6011     1.7583 C.3     
  36 H36           -3.2173    -0.4512     0.0702 H       
  37 H37           -1.6861    -0.4126    -0.8365 H       
  38 H38           -1.6666    -0.4154     0.9433 H       
  39 H39           -0.2342     1.6832     0.1238 H       
  40 H40           -2.2664     8.1425    -0.5228 H       
  41 H41           -3.3394     5.9100    -0.5043 H       
  42 H42            1.0050     3.7393     0.2162 H       
  43 H43           -0.6145    12.3191    -2.6944 H       
  44 H44            0.0389    10.2140     1.7255 H       
  45 H45            0.4323    13.7109     1.7318 H       
  46 H46           -0.1443    14.1510     3.9574 H       
  47 H47            0.5570    13.8780     6.3947 H       
  48 H48           -0.2115    13.0512     8.5818 H       
  49 H49           -2.1069    11.4868     8.7117 H       
  50 H50           -3.2404    10.7462     6.6566 H       
  51 H51           -2.4868    11.5760     4.4655 H       
  52 H52           -1.6078     9.3908    -3.0193 H       
  53 H53           -0.1706    10.1698    -3.7234 H       
  54 H54            0.0086     8.7042    -2.7294 H       
  55 H55            2.4370     4.7372    -0.1933 H       
  56 H56            3.2502     6.3205    -0.2046 H       
  57 H57            3.6901     5.1092     1.9139 H       
  58 H58            2.7527     6.5932     2.2093 H       
  59 H59            1.9396     5.0098     2.2206 H       
@<TRIPOS>BOND
   1    1    2 1
   2    1    3 2
   3    1    4 am
   4    2   36 1
   5    2   37 1
   6    2   38 1
   7    4   12 1
   8    4   39 1
   9    5    6 am
  10    5   14 1
  11    5   34 1
  12    6    7 1
  13    6   15 2
  14    7    8 2
  15    7   16 1
  16    8    9 1
  17    8   40 1
  18    9   10 ar
  19    9   14 ar
  20   10   11 ar
  21   10   41 1
  22   11   12 ar
  23   12   13 ar
  24   13   14 ar
  25   13   42 1
  26   16   17 ar
  27   16   21 ar
  28   17   18 ar
  29   17   32 1
  30   18   19 ar
  31   18   43 1
  32   19   20 ar
  33   19   33 1
  34   20   21 ar
  35   20   22 1
  36   21   44 1
  37   22   23 am
  38   22   45 1
  39   23   24 2
  40   23   25 am
  41   25   26 1
  42   25   46 1
  43   26   27 ar
  44   26   31 ar
  45   27   28 ar
  46   27   47 1
  47   28   29 ar
  48   28   48 1
  49   29   30 ar
  50   29   49 1
  51   30   31 ar
  52   30   50 1
  53   31   51 1
  54   32   52 1
  55   32   53 1
  56   32   54 1
  57   34   35 1
  58   34   55 1
  59   34   56 1
  60   35   57 1
  61   35   58 1
  62   35   59 1

#	End of record

