#	Name: ASD01882757
#	Creating user name:	WinNT
#	Creation time:	15. 06. 2019 19:45

#	Modifying user name:	WinNT
#	Modification time:	15. 06. 2019 19:45

#	Program:	/corina/corina34_cracker 3.40 0067  02.08.2006

@<TRIPOS>MOLECULE
ASD01882757
  54   55    0    0    0
SMALL
NO_CHARGES


@<TRIPOS>ATOM
   1 C1            -0.0167     1.3777     0.0096 C.ar    
   2 C2             0.0021    -0.0041     0.0020 C.ar    
   3 C3             1.2065    -0.6829    -0.0131 C.ar    
   4 C4             2.4092     0.0315    -0.0207 C.ar    
   5 C5             2.3849     1.4278    -0.0130 C.ar    
   6 C6             1.1727     2.0946     0.0021 C.ar    
   7 O7             1.1459     3.4538     0.0096 O.3     
   8 C8            -0.1398     4.0773     0.0252 C.3     
   9 C9             0.0307     5.5977     0.0318 C.3     
  10 C10           -1.3459     6.2653     0.0485 C.3     
  11 C11           -1.1754     7.7857     0.0550 C.3     
  12 O12           -2.4611     8.4092     0.0706 O.3     
  13 C13           -2.4878     9.7656     0.0781 C.ar    
  14 C14           -3.7343    11.8157     0.1072 C.ar    
  15 C15           -3.7046    10.4318     0.0991 C.ar    
  16 C16           -1.2935    10.4822     0.0705 C.ar    
  17 C17           -1.3068    11.8463     0.0789 C.ar    
  18 C18           -2.5267    12.5366     0.0947 C.ar    
  19 C19           -4.9927     9.6496     0.1124 C.3     
  20 O20           -4.9205    12.4724     0.1281 O.3     
  21 C21           -2.5436    14.0013     0.1027 C.2     
  22 O22           -3.6013    14.5957     0.1201 O.2     
  23 C23           -1.2474    14.7700     0.0892 C.3     
  24 C24           -1.5444    16.2708     0.1011 C.3     
  25 C25           -0.2284    17.0512     0.0874 C.3     
  26 C26            3.6981    -0.6872    -0.0364 C.2     
  27 O27            4.8546     0.0038    -0.0437 O.3     
  28 O28            3.7161    -1.9020    -0.0427 O.2     
  29 F29            1.2218    -2.0338    -0.0201 F       
  30 H30           -0.9606     1.9025     0.0169 H       
  31 H31           -0.9267    -0.5552     0.0083 H       
  32 H32            3.3097     1.9855    -0.0185 H       
  33 H33           -0.6994     3.7782    -0.8611 H       
  34 H34           -0.6824     3.7687     0.9188 H       
  35 H35            0.5903     5.8968     0.9181 H       
  36 H36            0.5733     5.9063    -0.8618 H       
  37 H37           -1.9055     5.9662    -0.8378 H       
  38 H38           -1.8885     5.9567     0.9420 H       
  39 H39           -0.6158     8.0848     0.9413 H       
  40 H40           -0.6328     8.0943    -0.8386 H       
  41 H41           -0.3512     9.9547     0.0584 H       
  42 H42           -0.3765    12.3949     0.0737 H       
  43 H43           -5.3174     9.4668    -0.9119 H       
  44 H44           -4.8343     8.6975     0.6188 H       
  45 H45           -5.7579    10.2189     0.6400 H       
  46 H46           -5.2518    12.6579     1.0174 H       
  47 H47           -0.6609    14.5086     0.9699 H       
  48 H48           -0.6850    14.5180    -0.8099 H       
  49 H49           -2.1310    16.5322    -0.7796 H       
  50 H50           -2.1069    16.5228     1.0001 H       
  51 H51            0.3582    16.7898     0.9682 H       
  52 H52            0.3341    16.7993    -0.8116 H       
  53 H53           -0.4400    18.1204     0.0959 H       
  54 H54            5.6734    -0.5107    -0.0539 H       
@<TRIPOS>BOND
   1    1    2 ar
   2    1    6 ar
   3    1   30 1
   4    2    3 ar
   5    2   31 1
   6    3    4 ar
   7    3   29 1
   8    4    5 ar
   9    4   26 1
  10    5    6 ar
  11    5   32 1
  12    6    7 1
  13    7    8 1
  14    8    9 1
  15    8   33 1
  16    8   34 1
  17    9   10 1
  18    9   35 1
  19    9   36 1
  20   10   11 1
  21   10   37 1
  22   10   38 1
  23   11   12 1
  24   11   39 1
  25   11   40 1
  26   12   13 1
  27   13   16 ar
  28   13   15 ar
  29   14   15 ar
  30   14   18 ar
  31   14   20 1
  32   15   19 1
  33   16   17 ar
  34   16   41 1
  35   17   18 ar
  36   17   42 1
  37   18   21 1
  38   19   43 1
  39   19   44 1
  40   19   45 1
  41   20   46 1
  42   21   22 2
  43   21   23 1
  44   23   24 1
  45   23   47 1
  46   23   48 1
  47   24   25 1
  48   24   49 1
  49   24   50 1
  50   25   51 1
  51   25   52 1
  52   25   53 1
  53   26   27 1
  54   26   28 2
  55   27   54 1

#	End of record

