#	Name: ASD01810709
#	Creating user name:	WinNT
#	Creation time:	15. 06. 2019 19:25

#	Modifying user name:	WinNT
#	Modification time:	15. 06. 2019 19:25

#	Program:	/corina/corina34_cracker 3.40 0067  02.08.2006

@<TRIPOS>MOLECULE
ASD01810709
  68   72    0    0    0
SMALL
NO_CHARGES


@<TRIPOS>ATOM
   1 C1            -0.2041     1.4897    -0.6030 C.2     
   2 C2            -0.1946     0.0146    -0.6148 C.ar    
   3 C3             0.8644    -0.6857    -1.2131 C.ar    
   4 C4             0.8319    -2.0538    -1.2009 C.ar    
   5 C5            -0.2429    -2.7070    -0.5998 C.ar    
   6 N6            -1.2311    -2.0214    -0.0414 N.ar    
   7 C7            -1.2359    -0.7047    -0.0262 C.ar    
   8 O8             0.7100     2.1077    -1.1140 O.2     
   9 N9            -1.2287     2.1524    -0.0307 N.am    
  10 C10           -1.1867     3.5464     0.0773 C.ar    
  11 C11           -2.3576     4.2876    -0.0323 C.ar    
  12 C12           -2.3214     5.6651     0.0741 C.ar    
  13 C13           -1.1225     6.3141     0.2899 C.ar    
  14 C14            0.0588     5.5790     0.4014 C.ar    
  15 C15            0.0216     4.1883     0.2992 C.ar    
  16 C16           -3.6707     3.5869    -0.2684 C.3     
  17 C17            1.3445     6.2718     0.6320 C.2     
  18 O18            2.3873     5.7457     0.2953 O.2     
  19 C19            0.7923     8.8826     3.0759 C.3     
  20 C20            0.2193     8.2289     1.8000 C.3     
  21 N21            1.3603     7.4866     1.2154 N.am    
  22 C22            2.5226     8.3826     1.4176 C.3     
  23 C23            2.3111     8.9840     2.8238 C.3     
  24 C24            1.4631    10.2516     2.9459 C.3     
  25 C25            1.2015    11.0363     1.6862 C.ar    
  26 C26           -0.0754    11.4866     1.4061 C.ar    
  27 C27           -0.3177    12.2061     0.2520 C.ar    
  28 C28            0.7215    12.4768    -0.6263 C.ar    
  29 C29            2.0018    12.0239    -0.3430 C.ar    
  30 C30            2.2400    11.3096     0.8152 C.ar    
  31 O31            0.4855    13.1840    -1.7625 O.3     
  32 C32            1.6027    13.4252    -2.6203 C.3     
  33 N33           -0.2794    -4.0911    -0.5860 N.pl3   
  34 C34            0.8067    -4.8586    -1.2004 C.3     
  35 C35            1.9467    -5.0248    -0.1936 C.3     
  36 C36            0.2867    -6.2368    -1.6141 C.3     
  37 H37            1.6862    -0.1569    -1.6730 H       
  38 H38            1.6313    -2.6221    -1.6531 H       
  39 H39           -2.0540    -0.1773     0.4416 H       
  40 H40           -1.9952     1.6627     0.3063 H       
  41 H41           -3.2343     6.2357    -0.0122 H       
  42 H42           -1.0984     7.3907     0.3721 H       
  43 H43            0.9319     3.6140     0.3887 H       
  44 H44           -4.1297     3.3429     0.6896 H       
  45 H45           -4.3349     4.2406    -0.8336 H       
  46 H46           -3.4971     2.6702    -0.8320 H       
  47 H47            0.3661     8.5817     4.0329 H       
  48 H48           -0.5895     7.5438     2.0544 H       
  49 H49           -0.1325     8.9929     1.1067 H       
  50 H50            3.4517     7.8136     1.3835 H       
  51 H51            2.5306     9.1706     0.6645 H       
  52 H52            3.0396     8.7340     3.5950 H       
  53 H53            1.5742    10.8448     3.8536 H       
  54 H54           -0.8841    11.2753     2.0900 H       
  55 H55           -1.3154    12.5573     0.0336 H       
  56 H56            2.8124    12.2333    -1.0252 H       
  57 H57            3.2375    10.9608     1.0385 H       
  58 H58            2.3626    13.9876    -2.0777 H       
  59 H59            2.0205    12.4737    -2.9491 H       
  60 H60            1.2772    13.9984    -3.4884 H       
  61 H61           -1.0241    -4.5525    -0.1696 H       
  62 H62            1.1732    -4.3294    -2.0801 H       
  63 H63            1.5803    -5.5539     0.6861 H       
  64 H64            2.7548    -5.5958    -0.6507 H       
  65 H65            2.3172    -4.0429     0.1012 H       
  66 H66           -0.5254    -6.1184    -2.3314 H       
  67 H67            1.0948    -6.8078    -2.0712 H       
  68 H68           -0.0797    -6.7659    -0.7344 H       
@<TRIPOS>BOND
   1    1    2 1
   2    1    8 2
   3    1    9 am
   4    2    3 ar
   5    2    7 ar
   6    3    4 ar
   7    3   37 1
   8    4    5 ar
   9    4   38 1
  10    5    6 ar
  11    5   33 1
  12    6    7 ar
  13    7   39 1
  14    9   10 1
  15    9   40 1
  16   10   11 ar
  17   10   15 ar
  18   11   12 ar
  19   11   16 1
  20   12   13 ar
  21   12   41 1
  22   13   14 ar
  23   13   42 1
  24   14   15 ar
  25   14   17 1
  26   15   43 1
  27   16   44 1
  28   16   45 1
  29   16   46 1
  30   17   18 2
  31   17   21 am
  32   19   20 1
  33   19   24 1
  34   19   23 1
  35   19   47 1
  36   20   21 1
  37   20   48 1
  38   20   49 1
  39   21   22 1
  40   22   23 1
  41   22   50 1
  42   22   51 1
  43   23   24 1
  44   23   52 1
  45   24   25 1
  46   24   53 1
  47   25   26 ar
  48   25   30 ar
  49   26   27 ar
  50   26   54 1
  51   27   28 ar
  52   27   55 1
  53   28   29 ar
  54   28   31 1
  55   29   30 ar
  56   29   56 1
  57   30   57 1
  58   31   32 1
  59   32   58 1
  60   32   59 1
  61   32   60 1
  62   33   34 1
  63   33   61 1
  64   34   35 1
  65   34   36 1
  66   34   62 1
  67   35   63 1
  68   35   64 1
  69   35   65 1
  70   36   66 1
  71   36   67 1
  72   36   68 1

#	End of record

