#	Name: ASD01820138
#	Creating user name:	WinNT
#	Creation time:	15. 06. 2019 19:36

#	Modifying user name:	WinNT
#	Modification time:	15. 06. 2019 19:36

#	Program:	/corina/corina34_cracker 3.40 0067  02.08.2006

@<TRIPOS>MOLECULE
ASD01820138
  92  103    0    0    0
SMALL
NO_CHARGES


@<TRIPOS>ATOM
   1 N1            -0.2752     1.7091     1.0049 N.pl3   
   2 C2            -0.2483     0.3714     0.6832 C.2     
   3 C3             0.8479    -0.3381     0.4231 C.2     
   4 C4             2.2085     0.1942     0.4123 C.3     
   5 N5             2.6917     1.2187    -0.5240 N.3     
   6 C6             1.6743     1.9888    -1.2363 C.3     
   7 C7             1.0053     3.1066    -0.3942 C.3     
   8 C8             0.9333     2.5749     1.0526 C.3     
   9 C9             3.3612    -0.8013     0.4765 C.3     
  10 C10            4.0799    -0.6056    -0.8194 C.ar    
  11 C11            3.5823     0.5758    -1.4015 C.ar    
  12 C12            5.0680    -1.3798    -1.3919 C.ar    
  13 C13            5.5431    -1.0005    -2.6383 C.ar    
  14 C14            5.0096     0.0985    -3.2742 C.ar    
  15 C15            4.0231     0.8876    -2.6864 C.ar    
  16 C16            1.8818     4.3580    -0.4006 C.3     
  17 C17            1.2998     5.4515     0.4895 C.3     
  18 C18            1.2687     4.9629     1.9165 C.3     
  19 C19            0.5328     3.6424     2.0735 C.3     
  20 C20           -0.9463     3.6787     2.0095 C.ar    
  21 C21           -1.3575     2.5177     1.3297 C.ar    
  22 C22           -1.8609     4.6043     2.4769 C.ar    
  23 C23           -3.2042     4.3637     2.2242 C.ar    
  24 C24           -3.6103     3.2414     1.5364 C.ar    
  25 C25           -2.7143     2.2953     1.0759 C.ar    
  26 C26            1.0101     3.1678     3.4744 C.3     
  27 C27            3.2188     3.9025     0.1699 C.2     
  28 N28            2.6132     4.7125     2.4666 N.4     
  29 C29            3.5035     3.9260     1.6198 C.3     
  30 C30            2.3595     3.8841     3.6866 C.3     
  31 H31            0.7700     5.7120     2.5350 H       
  32 H32            1.8476     2.0939     1.3732 H       
  33 H33            0.0008     3.3407    -0.7906 H       
  34 H34            1.9553     4.7605    -1.4057 H       
  35 O35            2.2933     2.6178    -2.4011 O.3     
  36 C36            3.9950     3.4549    -0.7749 C.2     
  37 C37            3.3759     3.4718    -2.1336 C.3     
  38 H38            0.8912     1.3017    -1.5860 H       
  39 H39            2.3168     0.6467     1.4036 H       
  40 O40           -2.1522    -4.7993     1.0288 O.3     
  41 C41            2.9175    -2.2607     0.5893 C.3     
  42 C42            0.5278    -1.8164     0.1981 C.3     
  43 C43            1.7637    -2.5368    -0.3454 C.3     
  44 C44            0.3378    -2.4062     1.5957 C.2     
  45 C45            1.4581    -2.1411     2.5683 C.3     
  46 N46            2.7566    -2.5238     2.0090 N.4     
  47 C47            4.2443    -0.5990     1.7070 C.3     
  48 C48            3.7892    -1.6965     2.6968 C.3     
  49 H49            3.7580    -2.8651     0.2433 H       
  50 H50           -0.3441    -1.9562    -0.4329 H       
  51 C51           -0.7285    -3.0908     1.9249 C.2     
  52 C52           -1.7562    -3.4346     0.8777 C.3     
  53 C53            3.2570     5.9774     2.8480 C.3     
  54 C54            3.0135    -3.9470     2.2830 C.3     
  55 H55           -1.2016    -0.1475     0.6452 H       
  56 H56            5.4577    -2.2523    -0.8856 H       
  57 H57            6.3414    -1.5574    -3.1028 H       
  58 H58            5.3624     0.3552    -4.2633 H       
  59 H59            3.6017     1.6736    -3.2919 H       
  60 H60            1.9117     6.3472     0.4081 H       
  61 H61            0.2837     5.6755     0.1599 H       
  62 H62           -1.5479     5.4827     3.0212 H       
  63 H63           -3.9440     5.0705     2.5706 H       
  64 H64           -4.6640     3.0974     1.3494 H       
  65 H65           -3.0462     1.4163     0.5434 H       
  66 H66            0.2986     3.4715     4.2423 H       
  67 H67            1.1473     2.0875     3.4893 H       
  68 H68            3.4911     2.8954     1.9715 H       
  69 H69            4.5165     4.3077     1.7447 H       
  70 H70            2.3054     4.5246     4.5664 H       
  71 H71            3.1553     3.1503     3.8101 H       
  72 H72            5.0128     3.1055    -0.5792 H       
  73 H73            4.1849     3.1988    -2.8432 H       
  74 H74            3.1384     4.4937    -2.4280 H       
  75 H75           -2.8137    -5.0904     0.3863 H       
  76 H76            1.9992    -2.1652    -1.3419 H       
  77 H77            1.5751    -3.6091    -0.3927 H       
  78 H78            1.4732    -1.0798     2.8185 H       
  79 H79            1.2816    -2.7165     3.4788 H       
  80 H80            5.2969    -0.7394     1.4559 H       
  81 H81            4.0913     0.3888     2.1404 H       
  82 H82            3.3709    -1.2406     3.5923 H       
  83 H83            4.6447    -2.3200     2.9624 H       
  84 H84           -0.8716    -3.4092     2.9469 H       
  85 H85           -1.3276    -3.2884    -0.1138 H       
  86 H86           -2.6261    -2.7886     0.9964 H       
  87 H87            2.6530     6.4791     3.6041 H       
  88 H88            4.2486     5.7731     3.2521 H       
  89 H89            3.3471     6.6182     1.9709 H       
  90 H90            4.0311    -4.1969     1.9826 H       
  91 H91            2.8917    -4.1395     3.3489 H       
  92 H92            2.3081    -4.5584     1.7203 H       
@<TRIPOS>BOND
   1    1    2 1
   2    1    8 1
   3    1   21 1
   4    2    3 2
   5    2   55 1
   6    3    4 1
   7    3   42 1
   8    4    5 1
   9    4    9 1
  10    4   39 1
  11    5    6 1
  12    5   11 1
  13    6    7 1
  14    6   35 1
  15    6   38 1
  16    7    8 1
  17    7   33 1
  18    7   16 1
  19    8   19 1
  20    8   32 1
  21    9   10 1
  22    9   41 1
  23    9   47 1
  24   10   11 ar
  25   10   12 ar
  26   11   15 ar
  27   12   13 ar
  28   12   56 1
  29   13   14 ar
  30   13   57 1
  31   14   15 ar
  32   14   58 1
  33   15   59 1
  34   16   17 1
  35   16   27 1
  36   16   34 1
  37   17   18 1
  38   17   60 1
  39   17   61 1
  40   18   19 1
  41   18   28 1
  42   18   31 1
  43   19   20 1
  44   19   26 1
  45   20   21 ar
  46   20   22 ar
  47   21   25 ar
  48   22   23 ar
  49   22   62 1
  50   23   24 ar
  51   23   63 1
  52   24   25 ar
  53   24   64 1
  54   25   65 1
  55   26   30 1
  56   26   66 1
  57   26   67 1
  58   27   36 2
  59   27   29 1
  60   28   29 1
  61   28   53 1
  62   28   30 1
  63   29   68 1
  64   29   69 1
  65   30   70 1
  66   30   71 1
  67   35   37 1
  68   36   37 1
  69   36   72 1
  70   37   73 1
  71   37   74 1
  72   40   52 1
  73   40   75 1
  74   41   46 1
  75   41   49 1
  76   41   43 1
  77   42   43 1
  78   42   44 1
  79   42   50 1
  80   43   76 1
  81   43   77 1
  82   44   45 1
  83   44   51 2
  84   45   46 1
  85   45   78 1
  86   45   79 1
  87   46   54 1
  88   46   48 1
  89   47   48 1
  90   47   80 1
  91   47   81 1
  92   48   82 1
  93   48   83 1
  94   51   52 1
  95   51   84 1
  96   52   85 1
  97   52   86 1
  98   53   87 1
  99   53   88 1
 100   53   89 1
 101   54   90 1
 102   54   91 1
 103   54   92 1

#	End of record

