#	Name: ASD00990100
#	Creating user name:	WinNT
#	Creation time:	15. 06. 2019 18:54

#	Modifying user name:	WinNT
#	Modification time:	15. 06. 2019 18:54

#	Program:	/corina/corina34_cracker 3.40 0067  02.08.2006

@<TRIPOS>MOLECULE
ASD00990100
  51   55    0    0    0
SMALL
NO_CHARGES


@<TRIPOS>ATOM
   1 C1            -0.0167     1.3770     0.0096 C.ar    
   2 C2             0.0021    -0.0041     0.0020 C.ar    
   3 C3             1.2127    -0.6790    -0.0132 C.ar    
   4 C4             2.4064     0.0421    -0.0208 C.ar    
   5 C5             2.3798     1.4279    -0.0131 C.ar    
   6 C6             1.1686     2.0917     0.0021 C.ar    
   7 N7             3.4385    -0.8958    -0.0357 N.am    
   8 C8             4.8741    -0.6041    -0.0475 C.3     
   9 C9             5.3796    -0.5121     1.3692 C.2     
  10 N10            6.6804    -0.2496     1.6048 N.am    
  11 C11            7.1719    -0.1602     2.9820 C.3     
  12 O12            4.6159    -0.6742     2.2973 O.2     
  13 C13            7.6030    -0.0538     0.4837 C.3     
  14 C14            7.6232    -1.5218     3.4438 C.2     
  15 N15            8.9037    -1.9781     3.3903 N.pl3   
  16 C16            8.9048    -3.2595     3.9038 C.ar    
  17 C17            7.5741    -3.5356     4.2602 C.ar    
  18 N18            6.8459    -2.4304     3.9569 N.2     
  19 C19            9.8877    -4.2186     4.1076 C.ar    
  20 C20            9.5498    -5.4361     4.6589 C.ar    
  21 C21            8.2352    -5.7085     5.0103 C.ar    
  22 C22            7.2550    -4.7769     4.8172 C.ar    
  23 O23            1.5374    -1.9951    -0.0234 O.3     
  24 C24            2.8738    -2.1195    -0.0369 C.2     
  25 O25            3.4809    -3.1730    -0.0480 O.2     
  26 C26            7.8855    -7.0456     5.6112 C.3     
  27 C27            8.1736    -8.2934     4.7740 C.3     
  28 C28            9.0413    -7.9726     5.9927 C.3     
  29 C29            1.1375     3.5984     0.0105 C.3     
  30 F30            1.1152     4.0717    -1.3058 F       
  31 F31           -0.0077     4.0375     0.6834 F       
  32 F32            2.2762     4.0847     0.6617 F       
  33 H33           -0.9606     1.9016     0.0169 H       
  34 H34           -0.9254    -0.5574     0.0083 H       
  35 H35            3.3037     1.9872    -0.0186 H       
  36 H36            5.4025    -1.4010    -0.5708 H       
  37 H37            5.0482     0.3433    -0.5576 H       
  38 H38            8.0110     0.5343     3.0240 H       
  39 H39            6.3720     0.1968     3.6308 H       
  40 H40            7.6272     1.0019     0.2133 H       
  41 H41            8.6023    -0.3773     0.7748 H       
  42 H42            7.2657    -0.6402    -0.3710 H       
  43 H43            9.6732    -1.4930     3.0534 H       
  44 H44           10.9121    -4.0120     3.8353 H       
  45 H45           10.3133    -6.1832     4.8180 H       
  46 H46            6.2351    -4.9993     5.0945 H       
  47 H47            6.9991    -7.0586     6.2454 H       
  48 H48            7.4769    -9.1275     4.8578 H       
  49 H49            8.6161    -8.1472     3.7887 H       
  50 H50           10.0546    -7.6155     5.8091 H       
  51 H51            8.9155    -8.5957     6.8782 H       
@<TRIPOS>BOND
   1    1    2 ar
   2    1    6 ar
   3    1   33 1
   4    2    3 ar
   5    2   34 1
   6    3    4 ar
   7    3   23 1
   8    4    5 ar
   9    4    7 1
  10    5    6 ar
  11    5   35 1
  12    6   29 1
  13    7    8 1
  14    7   24 am
  15    8    9 1
  16    8   36 1
  17    8   37 1
  18    9   10 am
  19    9   12 2
  20   10   11 1
  21   10   13 1
  22   11   14 1
  23   11   38 1
  24   11   39 1
  25   13   40 1
  26   13   41 1
  27   13   42 1
  28   14   15 1
  29   14   18 2
  30   15   16 1
  31   15   43 1
  32   16   17 ar
  33   16   19 ar
  34   17   18 1
  35   17   22 ar
  36   19   20 ar
  37   19   44 1
  38   20   21 ar
  39   20   45 1
  40   21   22 ar
  41   21   26 1
  42   22   46 1
  43   23   24 1
  44   24   25 2
  45   26   27 1
  46   26   28 1
  47   26   47 1
  48   27   28 1
  49   27   48 1
  50   27   49 1
  51   28   50 1
  52   28   51 1
  53   29   30 1
  54   29   31 1
  55   29   32 1

#	End of record

