#	Name: ASD02198260
#	Creating user name:	WinNT
#	Creation time:	15. 06. 2019 20:19

#	Modifying user name:	WinNT
#	Modification time:	15. 06. 2019 20:19

#	Program:	/corina/corina34_cracker 3.40 0067  02.08.2006

@<TRIPOS>MOLECULE
ASD02198260
  32   32    0    0    0
SMALL
NO_CHARGES


@<TRIPOS>ATOM
   1 C1            -0.0166     1.3757     0.0096 C.2     
   2 C2             0.0021    -0.0041     0.0020 C.2     
   3 C3            -1.2131    -0.8193     0.0092 C.2     
   4 S4             1.5683     2.0039    -0.0022 S.3     
   5 C5             2.2764     0.3969    -0.0175 C.2     
   6 C6             1.2862    -0.5509    -0.0132 C.2     
   7 C7             3.6577     0.1225    -0.0326 C.2     
   8 O8             4.5479     1.1381    -0.0356 O.3     
   9 O9             4.0494    -1.0307    -0.0430 O.2     
  10 N10            1.5350    -1.9144    -0.0221 N.pl3   
  11 N11           -1.1587     2.1402     0.0193 N.pl3   
  12 O12           -1.7282    -1.1525    -1.0411 O.2     
  13 O13           -1.7620    -1.2013     1.1806 O.3     
  14 C14           -2.9668    -2.0088     1.1118 C.3     
  15 C15           -1.0616     3.6020     0.0268 C.3     
  16 C16           -2.4459     4.1973     0.0368 C.2     
  17 C17           -2.7860     5.0488     0.9724 C.2     
  18 C18            5.9330     0.7867    -0.0512 C.3     
  19 H19            2.4484    -2.2407    -0.0324 H       
  20 H20            0.7956    -2.5423    -0.0181 H       
  21 H21           -2.0290     1.7119     0.0212 H       
  22 H22           -2.7551    -2.9321     0.5726 H       
  23 H23           -3.3032    -2.2463     2.1210 H       
  24 H24           -3.7467    -1.4540     0.5900 H       
  25 H25           -0.5204     3.9256     0.9159 H       
  26 H26           -0.5291     3.9353    -0.8640 H       
  27 H27           -3.1577     3.9220    -0.7274 H       
  28 H28           -2.0743     5.3241     1.7366 H       
  29 H29           -3.7781     5.4755     0.9796 H       
  30 H30            6.1675     0.1943     0.8332 H       
  31 H31            6.1500     0.2044    -0.9466 H       
  32 H32            6.5379     1.6935    -0.0520 H       
@<TRIPOS>BOND
   1    1    2 2
   2    1    4 1
   3    1   11 1
   4    2    3 1
   5    2    6 1
   6    3   12 2
   7    3   13 1
   8    4    5 1
   9    5    6 2
  10    5    7 1
  11    6   10 1
  12    7    8 1
  13    7    9 2
  14    8   18 1
  15   10   19 1
  16   10   20 1
  17   11   15 1
  18   11   21 1
  19   13   14 1
  20   14   22 1
  21   14   23 1
  22   14   24 1
  23   15   16 1
  24   15   25 1
  25   15   26 1
  26   16   17 2
  27   16   27 1
  28   17   28 1
  29   17   29 1
  30   18   30 1
  31   18   31 1
  32   18   32 1

#	End of record

