#	Name: ASD01410417
#	Creating user name:	WinNT
#	Creation time:	15. 06. 2019 19:17

#	Modifying user name:	WinNT
#	Modification time:	15. 06. 2019 19:17

#	Program:	/corina/corina34_cracker 3.40 0067  02.08.2006

@<TRIPOS>MOLECULE
ASD01410417
  42   45    0    0    0
SMALL
NO_CHARGES


@<TRIPOS>ATOM
   1 S1            -0.0115     1.7554    -0.1453 S.3     
   2 C2            -0.0005    -0.0004     0.0950 C.2     
   3 N3             1.2715    -0.3564     0.3071 N.am    
   4 C4             2.2169     0.5686     0.3028 C.2     
   5 C5             1.7426     1.9369     0.0556 C.2     
   6 S6            -1.3586    -1.0422     0.0621 S.2     
   7 O7             3.3903     0.3063     0.4898 O.2     
   8 N8             1.5999    -1.6996     0.5325 N.am    
   9 S9             1.9758    -2.6856    -0.7437 S.o2    
  10 O10            2.4038    -3.9199    -0.1847 O.2     
  11 O11            0.8970    -2.5811    -1.6628 O.2     
  12 C12            3.3815    -1.9883    -1.5452 C.ar    
  13 C13            4.6546    -2.3560    -1.1517 C.ar    
  14 C14            5.7575    -1.8090    -1.7804 C.ar    
  15 C15            5.5872    -0.8945    -2.8030 C.ar    
  16 C16            4.3141    -0.5275    -3.1971 C.ar    
  17 C17            3.2112    -1.0778    -2.5713 C.ar    
  18 C18            2.4764     3.0766    -0.0051 C.2     
  19 C19            1.8037     4.3790    -0.1020 C.ar    
  20 C20            0.4866     4.5085     0.3196 C.ar    
  21 C21           -0.1479     5.7551     0.2236 C.ar    
  22 C22            0.5642     6.8635    -0.3019 C.ar    
  23 C23            1.8984     6.7011    -0.7211 C.ar    
  24 C24            2.5009     5.4907    -0.6169 C.ar    
  25 C25           -1.4810     5.9259     0.6397 C.ar    
  26 C26           -2.0684     7.1489     0.5330 C.ar    
  27 C27           -1.3683     8.2374     0.0163 C.ar    
  28 C28           -0.0768     8.1095    -0.3959 C.ar    
  29 H29            1.6071    -2.0520     1.4362 H       
  30 H30            4.7876    -3.0705    -0.3527 H       
  31 H31            6.7521    -2.0957    -1.4725 H       
  32 H32            6.4488    -0.4666    -3.2938 H       
  33 H33            4.1811     0.1872    -3.9958 H       
  34 H34            2.2165    -0.7938    -2.8817 H       
  35 H35            3.5550     3.0263     0.0179 H       
  36 H36           -0.0442     3.6563     0.7176 H       
  37 H37            2.4439     7.5424    -1.1222 H       
  38 H38            3.5247     5.3749    -0.9410 H       
  39 H39           -2.0354     5.0907     1.0415 H       
  40 H40           -3.0918     7.2776     0.8531 H       
  41 H41           -1.8577     9.1973    -0.0585 H       
  42 H42            0.4523     8.9628    -0.7939 H       
@<TRIPOS>BOND
   1    1    2 1
   2    1    5 1
   3    2    3 am
   4    2    6 2
   5    3    4 am
   6    3    8 1
   7    4    5 1
   8    4    7 2
   9    5   18 2
  10    8    9 am
  11    8   29 1
  12    9   10 2
  13    9   11 2
  14    9   12 1
  15   12   13 ar
  16   12   17 ar
  17   13   14 ar
  18   13   30 1
  19   14   15 ar
  20   14   31 1
  21   15   16 ar
  22   15   32 1
  23   16   17 ar
  24   16   33 1
  25   17   34 1
  26   18   19 1
  27   18   35 1
  28   19   20 ar
  29   19   24 ar
  30   20   21 ar
  31   20   36 1
  32   21   22 ar
  33   21   25 ar
  34   22   23 ar
  35   22   28 ar
  36   23   24 ar
  37   23   37 1
  38   24   38 1
  39   25   26 ar
  40   25   39 1
  41   26   27 ar
  42   26   40 1
  43   27   28 ar
  44   27   41 1
  45   28   42 1

#	End of record

