#	Name: ASD03331806
#	Creating user name:	WinNT
#	Creation time:	15. 06. 2019 20:39

#	Modifying user name:	WinNT
#	Modification time:	15. 06. 2019 20:39

#	Program:	/corina/corina34_cracker 3.40 0067  02.08.2006

@<TRIPOS>MOLECULE
ASD03331806
  38   40    0    0    0
SMALL
NO_CHARGES


@<TRIPOS>ATOM
   1 N1            -0.2779     1.4018     0.7306 N.am    
   2 C2            -0.1776     0.0630     0.8493 C.2     
   3 O3             0.7341    -0.4239     1.4898 O.2     
   4 N4            -1.0877    -0.7361     0.2580 N.am    
   5 C5            -1.8677    -4.3354     0.3767 C.ar    
   6 C6            -2.0351    -2.9533     0.3460 C.ar    
   7 C7            -0.9243    -2.1256     0.2894 C.ar    
   8 C8             0.3513    -2.6763     0.2635 C.ar    
   9 C9             0.5166    -4.0478     0.2935 C.ar    
  10 C10           -0.5847    -4.8789     0.3503 C.ar    
  11 C11           -3.0520    -5.2269     0.4435 C.ar    
  12 C12           -2.8846    -6.6100     0.4742 C.ar    
  13 C13           -3.9886    -7.4352     0.5362 C.ar    
  14 C14           -5.2622    -6.8907     0.5675 C.ar    
  15 C15           -5.4332    -5.5161     0.5372 C.ar    
  16 C16           -4.3345    -4.6833     0.4814 C.ar    
  17 F17           -6.3405    -7.7024     0.6274 F       
  18 C18            0.5999     2.2347     1.4344 C.ar    
  19 C19            0.9999     3.4458     0.8856 C.ar    
  20 C20            1.8661     4.2657     1.5820 C.ar    
  21 C21            2.3353     3.8811     2.8257 C.ar    
  22 C22            1.9385     2.6744     3.3747 C.ar    
  23 C23            1.0677     1.8537     2.6851 C.ar    
  24 Cl24           3.4240     4.9139     3.6985 Cl      
  25 H25           -0.9559     1.7881     0.1544 H       
  26 H26           -1.8560    -0.3480    -0.1893 H       
  27 H27           -3.0274    -2.5274     0.3659 H       
  28 H28            1.2159    -2.0305     0.2194 H       
  29 H29            1.5100    -4.4710     0.2728 H       
  30 H30           -0.4517    -5.9504     0.3740 H       
  31 H31           -1.8922    -7.0353     0.4490 H       
  32 H32           -3.8597    -8.5073     0.5600 H       
  33 H33           -6.4277    -5.0958     0.5614 H       
  34 H34           -4.4685    -3.6118     0.4623 H       
  35 H35            0.6343     3.7463    -0.0852 H       
  36 H36            2.1779     5.2076     1.1554 H       
  37 H37            2.3067     2.3761     4.3453 H       
  38 H38            0.7542     0.9144     3.1163 H       
@<TRIPOS>BOND
   1    1    2 am
   2    1   18 1
   3    1   25 1
   4    2    3 2
   5    2    4 am
   6    4    7 1
   7    4   26 1
   8    5    6 ar
   9    5   10 ar
  10    5   11 1
  11    6    7 ar
  12    6   27 1
  13    7    8 ar
  14    8    9 ar
  15    8   28 1
  16    9   10 ar
  17    9   29 1
  18   10   30 1
  19   11   12 ar
  20   11   16 ar
  21   12   13 ar
  22   12   31 1
  23   13   14 ar
  24   13   32 1
  25   14   15 ar
  26   14   17 1
  27   15   16 ar
  28   15   33 1
  29   16   34 1
  30   18   19 ar
  31   18   23 ar
  32   19   20 ar
  33   19   35 1
  34   20   21 ar
  35   20   36 1
  36   21   22 ar
  37   21   24 1
  38   22   23 ar
  39   22   37 1
  40   23   38 1

#	End of record

