#	Name: ASD03331779
#	Creating user name:	WinNT
#	Creation time:	15. 06. 2019 20:39

#	Modifying user name:	WinNT
#	Modification time:	15. 06. 2019 20:39

#	Program:	/corina/corina34_cracker 3.40 0067  02.08.2006

@<TRIPOS>MOLECULE
ASD03331779
  60   62    0    0    0
SMALL
NO_CHARGES


@<TRIPOS>ATOM
   1 C1            -1.2870     2.0927    -2.1086 C.3     
   2 N2            -1.1225     0.7055    -1.6524 N.3     
   3 C3            -0.3350    -0.0832    -2.6172 C.3     
   4 C4             0.9161     0.6920    -2.9401 C.2     
   5 N5             1.0794     2.0166    -2.6551 N.pl3   
   6 C6             0.0514     2.8360    -2.0074 C.3     
   7 C7             2.0573     0.2670    -3.5364 C.2     
   8 N8             2.9013     1.3222    -3.6079 N.2     
   9 C9             2.3193     2.3755    -3.0791 C.2     
  10 C10            2.9139     3.7250    -2.9657 C.ar    
  11 C11            3.5656     4.2993    -4.0606 C.ar    
  12 C12            2.3294    -1.0982    -4.0196 C.2     
  13 O13            1.4858    -1.9658    -3.8978 O.2     
  14 N14            3.5130    -1.3854    -4.5966 N.am    
  15 C15           -2.4257     0.0770    -1.3979 C.3     
  16 C16            3.7835    -2.7427    -5.0770 C.3     
  17 C17            4.3058    -3.5982    -3.9211 C.3     
  18 C18            3.2169    -3.7348    -2.8551 C.3     
  19 C19            4.6846    -4.9854    -4.4438 C.3     
  20 C20            5.5384    -2.9301    -3.3085 C.3     
  21 C21            4.8183    -2.6913    -6.1714 C.2     
  22 N22            5.0066    -3.7595    -6.9715 N.am    
  23 O23            5.4816    -1.6888    -6.3322 O.2     
  24 C24            6.0640    -3.7380    -7.9852 C.3     
  25 C25            4.1182     5.5610    -3.9467 C.ar    
  26 C26            4.0272     6.2532    -2.7529 C.ar    
  27 C27            3.3836     5.6890    -1.6659 C.ar    
  28 C28            2.8219     4.4328    -1.7673 C.ar    
  29 C29            3.2903     6.4513    -0.3692 C.3     
  30 F30            3.9223     7.6914    -0.5108 F       
  31 F31            1.9450     6.6484    -0.0400 F       
  32 F32            3.9170     5.7218     0.6467 F       
  33 F33            3.6554     3.6230    -5.2267 F       
  34 H34           -1.6254     2.0956    -3.1447 H       
  35 H35           -2.0276     2.5937    -1.4853 H       
  36 H36           -0.0696    -1.0447    -2.1776 H       
  37 H37           -0.9160    -0.2406    -3.5259 H       
  38 H38           -0.0236     3.7990    -2.5124 H       
  39 H39            0.3090     2.9886    -0.9593 H       
  40 H40            4.1858    -0.6935    -4.6938 H       
  41 H41           -3.0403     0.1385    -2.2960 H       
  42 H42           -2.2783    -0.9690    -1.1294 H       
  43 H43           -2.9254     0.5953    -0.5795 H       
  44 H44            2.8643    -3.1803    -5.4664 H       
  45 H45            2.3388    -4.2108    -3.2915 H       
  46 H46            3.5889    -4.3442    -2.0316 H       
  47 H47            2.9470    -2.7465    -2.4827 H       
  48 H48            5.3635    -4.8818    -5.2902 H       
  49 H49            5.1752    -5.5508    -3.6515 H       
  50 H50            3.7848    -5.5119    -4.7622 H       
  51 H51            5.2685    -1.9418    -2.9360 H       
  52 H52            5.9104    -3.5396    -2.4849 H       
  53 H53            6.3142    -2.8328    -4.0679 H       
  54 H54            4.4420    -4.5424    -6.8761 H       
  55 H55            6.0638    -4.6819    -8.5305 H       
  56 H56            5.8850    -2.9172    -8.6797 H       
  57 H57            7.0300    -3.5991    -7.4997 H       
  58 H58            4.6223     6.0070    -4.7914 H       
  59 H59            4.4609     7.2387    -2.6686 H       
  60 H60            2.3197     3.9946    -0.9174 H       
@<TRIPOS>BOND
   1    1    2 1
   2    1    6 1
   3    1   34 1
   4    1   35 1
   5    2    3 1
   6    2   15 1
   7    3    4 1
   8    3   36 1
   9    3   37 1
  10    4    5 1
  11    4    7 2
  12    5    6 1
  13    5    9 1
  14    6   38 1
  15    6   39 1
  16    7    8 1
  17    7   12 1
  18    8    9 2
  19    9   10 1
  20   10   11 ar
  21   10   28 ar
  22   11   25 ar
  23   11   33 1
  24   12   13 2
  25   12   14 am
  26   14   16 1
  27   14   40 1
  28   15   41 1
  29   15   42 1
  30   15   43 1
  31   16   17 1
  32   16   21 1
  33   16   44 1
  34   17   18 1
  35   17   19 1
  36   17   20 1
  37   18   45 1
  38   18   46 1
  39   18   47 1
  40   19   48 1
  41   19   49 1
  42   19   50 1
  43   20   51 1
  44   20   52 1
  45   20   53 1
  46   21   22 am
  47   21   23 2
  48   22   24 1
  49   22   54 1
  50   24   55 1
  51   24   56 1
  52   24   57 1
  53   25   26 ar
  54   25   58 1
  55   26   27 ar
  56   26   59 1
  57   27   28 ar
  58   27   29 1
  59   28   60 1
  60   29   30 1
  61   29   31 1
  62   29   32 1

#	End of record

