#	Name: ASD01150365
#	Creating user name:	WinNT
#	Creation time:	15. 06. 2019 19:04

#	Modifying user name:	WinNT
#	Modification time:	15. 06. 2019 19:04

#	Program:	/corina/corina34_cracker 3.40 0067  02.08.2006

@<TRIPOS>MOLECULE
ASD01150365
  45   47    0    0    0
SMALL
NO_CHARGES


@<TRIPOS>ATOM
   1 C1             0.3806     1.5257     0.7458 C.ar    
   2 C2             0.4561     0.1760     1.0298 C.ar    
   3 C3             1.2862    -0.6436     0.2890 C.ar    
   4 C4             2.0476    -0.1122    -0.7441 C.ar    
   5 C5             1.9738     1.2431    -1.0324 C.ar    
   6 C6             1.1393     2.0635    -0.2868 C.ar    
   7 N7             1.0620     3.4311    -0.5743 N.am    
   8 C8            -0.1427     4.0150    -0.7031 C.2     
   9 N9            -0.2507     5.3282    -0.9789 N.am    
  10 C10            0.8592     6.0799    -1.1309 C.2     
  11 C11            2.1742     5.4484    -0.9915 C.2     
  12 N12            2.2395     4.1744    -0.7182 N.2     
  13 O13            0.7695     7.2677    -1.3811 O.2     
  14 C14           -1.5743     5.9413    -1.1145 C.3     
  15 O15           -1.1494     3.3466    -0.5688 O.2     
  16 N16            2.8886    -0.9427    -1.4931 N.am    
  17 C17            2.5155    -2.2084    -1.7676 C.2     
  18 C18            3.3714    -3.0695    -2.6603 C.3     
  19 O19            1.4908    -2.6543    -1.2962 O.2     
  20 C20           -2.0356     6.4430     0.2296 C.ar    
  21 C21           -1.7340     7.7323     0.6266 C.ar    
  22 C22           -2.1568     8.1930     1.8592 C.ar    
  23 C23           -2.8821     7.3634     2.6958 C.ar    
  24 C24           -3.1837     6.0731     2.2980 C.ar    
  25 C25           -2.7652     5.6155     1.0628 C.ar    
  26 Cl26          -3.4130     7.9411     4.2444 Cl      
  27 C27            3.4332     6.2602    -1.1559 C.3     
  28 O28            4.5716     5.4162    -0.9727 O.3     
  29 H29           -0.2723     2.1629     1.3239 H       
  30 H30           -0.1346    -0.2395     1.8327 H       
  31 H31            1.3433    -1.6984     0.5138 H       
  32 H32            2.5651     1.6587    -1.8349 H       
  33 H33           -1.5185     6.7754    -1.8139 H       
  34 H34           -2.2813     5.2006    -1.4880 H       
  35 H35            3.7402    -0.6076    -1.8148 H       
  36 H36            4.3626    -3.1769    -2.2198 H       
  37 H37            2.9122    -4.0524    -2.7658 H       
  38 H38            3.4585    -2.6020    -3.6412 H       
  39 H39           -1.1675     8.3797    -0.0264 H       
  40 H40           -1.9207     9.2002     2.1694 H       
  41 H41           -3.7498     5.4251     2.9506 H       
  42 H42           -3.0005     4.6083     0.7521 H       
  43 H43            3.4587     6.6926    -2.1561 H       
  44 H44            3.4499     7.0589    -0.4143 H       
  45 H45            5.4189     5.8731    -1.0645 H       
@<TRIPOS>BOND
   1    1    2 ar
   2    1    6 ar
   3    1   29 1
   4    2    3 ar
   5    2   30 1
   6    3    4 ar
   7    3   31 1
   8    4    5 ar
   9    4   16 1
  10    5    6 ar
  11    5   32 1
  12    6    7 1
  13    7    8 am
  14    7   12 1
  15    8    9 am
  16    8   15 2
  17    9   10 am
  18    9   14 1
  19   10   11 1
  20   10   13 2
  21   11   12 2
  22   11   27 1
  23   14   20 1
  24   14   33 1
  25   14   34 1
  26   16   17 am
  27   16   35 1
  28   17   18 1
  29   17   19 2
  30   18   36 1
  31   18   37 1
  32   18   38 1
  33   20   21 ar
  34   20   25 ar
  35   21   22 ar
  36   21   39 1
  37   22   23 ar
  38   22   40 1
  39   23   24 ar
  40   23   26 1
  41   24   25 ar
  42   24   41 1
  43   25   42 1
  44   27   28 1
  45   27   43 1
  46   27   44 1
  47   28   45 1

#	End of record

