#	Name: ASD02508481
#	Creating user name:	WinNT
#	Creation time:	15. 06. 2019 20:24

#	Modifying user name:	WinNT
#	Modification time:	15. 06. 2019 20:24

#	Program:	/corina/corina34_cracker 3.40 0067  02.08.2006

@<TRIPOS>MOLECULE
ASD02508481
  48   51    0    0    0
SMALL
NO_CHARGES


@<TRIPOS>ATOM
   1 N1            -0.0120     1.3376    -0.1192 N.2     
   2 C2            -0.0144     0.0068     0.0516 C.2     
   3 C3             1.2622    -0.4073     0.1520 C.2     
   4 N4             2.0521     0.7092     0.0379 N.pl3   
   5 C5             1.2185     1.7708    -0.1293 C.2     
   6 C6             3.4454     0.7480     0.0849 C.ar    
   7 N7             4.1399    -0.1072    -0.6481 N.ar    
   8 N8             4.0405     1.6425     0.8573 N.ar    
   9 C9             5.3599     1.7067     0.9254 C.ar    
  10 C10            6.1191     0.8223     0.1751 C.ar    
  11 C11            5.4625    -0.0978    -0.6272 C.ar    
  12 S12            1.8134    -2.0645     0.3857 S.o2    
  13 N13            1.8820    -2.7737    -1.1092 N.am    
  14 C14            3.1103    -2.7165    -1.9162 C.3     
  15 C15            3.4622    -4.1377    -2.3685 C.3     
  16 O16            3.1532    -1.9797     0.8515 O.2     
  17 O17            0.7830    -2.7331     1.1001 O.2     
  18 N18            2.3023    -4.7344    -3.0442 N.3     
  19 C19            1.1624    -4.8687    -2.1273 C.3     
  20 C20            0.7183    -3.4827    -1.6625 C.3     
  21 C21            2.6346    -5.9682    -3.6154 C.ar    
  22 C22            3.5472    -6.0282    -4.6663 C.ar    
  23 C23            3.8722    -7.2518    -5.2278 C.ar    
  24 C24            3.2911    -8.4104    -4.7459 C.ar    
  25 C25            2.3853    -8.3518    -3.7030 C.ar    
  26 C26            2.0602    -7.1352    -3.1330 C.ar    
  27 O27            4.1174    -4.8878    -5.1400 O.3     
  28 C28            5.0441    -5.0255    -6.2190 C.3     
  29 H29           -0.8900    -0.6235     0.1004 H       
  30 H30            1.5239     2.7996    -0.2504 H       
  31 H31            5.8398     2.4393     1.5574 H       
  32 H32            7.1981     0.8523     0.2115 H       
  33 H33            6.0237    -0.8012    -1.2245 H       
  34 H34            2.9459    -2.0846    -2.7890 H       
  35 H35            3.9246    -2.3113    -1.3155 H       
  36 H36            4.3058    -4.1016    -3.0578 H       
  37 H37            3.7272    -4.7407    -1.5000 H       
  38 H38            0.3382    -5.3627    -2.6417 H       
  39 H39            1.4594    -5.4615    -1.2622 H       
  40 H40           -0.0502    -3.5824    -0.8959 H       
  41 H41            0.3238    -2.9214    -2.5096 H       
  42 H42            4.5794    -7.3012    -6.0426 H       
  43 H43            3.5452    -9.3636    -5.1855 H       
  44 H44            1.9339    -9.2592    -3.3299 H       
  45 H45            1.3526    -7.0923    -2.3183 H       
  46 H46            5.8737    -5.6599    -5.9067 H       
  47 H47            4.5419    -5.4788    -7.0736 H       
  48 H48            5.4237    -4.0431    -6.4996 H       
@<TRIPOS>BOND
   1    1    2 1
   2    1    5 2
   3    2    3 2
   4    2   29 1
   5    3    4 1
   6    3   12 1
   7    4    5 1
   8    4    6 1
   9    5   30 1
  10    6    7 ar
  11    6    8 ar
  12    7   11 ar
  13    8    9 ar
  14    9   10 ar
  15    9   31 1
  16   10   11 ar
  17   10   32 1
  18   11   33 1
  19   12   13 am
  20   12   16 2
  21   12   17 2
  22   13   14 1
  23   13   20 1
  24   14   15 1
  25   14   34 1
  26   14   35 1
  27   15   18 1
  28   15   36 1
  29   15   37 1
  30   18   19 1
  31   18   21 1
  32   19   20 1
  33   19   38 1
  34   19   39 1
  35   20   40 1
  36   20   41 1
  37   21   22 ar
  38   21   26 ar
  39   22   23 ar
  40   22   27 1
  41   23   24 ar
  42   23   42 1
  43   24   25 ar
  44   24   43 1
  45   25   26 ar
  46   25   44 1
  47   26   45 1
  48   27   28 1
  49   28   46 1
  50   28   47 1
  51   28   48 1

#	End of record

