#	Name: ASD02030161
#	Creating user name:	WinNT
#	Creation time:	15. 06. 2019 20:14

#	Modifying user name:	WinNT
#	Modification time:	15. 06. 2019 20:14

#	Program:	/corina/corina34_cracker 3.40 0067  02.08.2006

@<TRIPOS>MOLECULE
ASD02030161
  61   65    0    0    0
SMALL
NO_CHARGES


@<TRIPOS>ATOM
   1 N1            -0.2111     1.4207    -0.1436 N.am    
   2 C2            -0.0220    -0.0128     0.1193 C.3     
   3 C3            -0.9184    -0.4177     1.2961 C.3     
   4 N4            -2.2771     0.0832     1.0454 N.am    
   5 C5            -2.4663     1.5167     0.7825 C.3     
   6 C6            -1.5705     1.9225    -0.3887 C.3     
   7 C7             0.8425     2.2611    -0.1542 C.2     
   8 C8             2.1847     1.7683     0.2213 C.2     
   9 N9             3.2643     2.5046     0.3751 N.2     
  10 N10            2.5165     0.4885     0.4717 N.2     
  11 C11            3.7912     0.4678     0.7674 C.2     
  12 N12            4.2453     1.7362     0.7030 N.pl3   
  13 O13            0.6891     3.4242    -0.4725 O.2     
  14 C14           -3.3308    -0.7571     1.0560 C.2     
  15 C15           -4.7003    -0.2255     0.9125 C.ar    
  16 O16           -3.1532    -1.9532     1.1837 O.2     
  17 C17           -1.5426     3.4475    -0.5094 C.3     
  18 C18           -2.1098     1.3112    -1.6835 C.3     
  19 C19           -5.6724    -0.9672     0.2376 C.ar    
  20 C20            5.5621     2.1487     0.9499 C.ar    
  21 C21            5.9004     3.4913     0.8490 C.ar    
  22 C22            7.1982     3.8958     1.0932 C.ar    
  23 C23            8.1618     2.9631     1.4383 C.ar    
  24 C24            7.8262     1.6230     1.5394 C.ar    
  25 C25            6.5286     1.2155     1.3013 C.ar    
  26 C26            7.5661     5.3531     0.9834 C.3     
  27 F27            9.4308     3.3606     1.6763 F       
  28 C28           -6.9503    -0.4675     0.1045 C.ar    
  29 C29           -7.2762     0.7741     0.6395 C.ar    
  30 C30           -6.3116     1.5166     1.3159 C.ar    
  31 C31           -5.0294     1.0185     1.4565 C.ar    
  32 Cl32          -8.1571    -1.3912    -0.7346 Cl      
  33 O33           -8.5408     1.2511     0.4893 O.3     
  34 C34           -8.9333     2.3202     1.3566 C.3     
  35 C35           -7.8082     3.3637     1.3737 C.3     
  36 O36           -6.6168     2.7302     1.8523 O.3     
  37 H37           -0.2982    -0.5865    -0.7653 H       
  38 H38            1.0211    -0.2039     0.3714 H       
  39 H39           -0.9392    -1.5040     1.3832 H       
  40 H40           -0.5319     0.0184     2.2173 H       
  41 H41           -3.5094     1.7079     0.5304 H       
  42 H42           -2.1900     2.0904     1.6671 H       
  43 H43            4.3733    -0.4060     1.0203 H       
  44 H44           -1.0457     3.8720     0.3629 H       
  45 H45           -0.9991     3.7307    -1.4109 H       
  46 H46           -2.5631     3.8262    -0.5664 H       
  47 H47           -3.1231     1.6715    -1.8609 H       
  48 H48           -1.4698     1.6019    -2.5166 H       
  49 H49           -2.1207     0.2249    -1.5954 H       
  50 H50           -5.4231    -1.9315    -0.1800 H       
  51 H51            5.1493     4.2190     0.5795 H       
  52 H52            8.5791     0.8969     1.8083 H       
  53 H53            6.2673     0.1706     1.3806 H       
  54 H54            7.4266     5.8368     1.9501 H       
  55 H55            8.6089     5.4427     0.6793 H       
  56 H56            6.9286     5.8338     0.2413 H       
  57 H57           -4.2804     1.5946     1.9795 H       
  58 H58           -9.8515     2.7758     0.9860 H       
  59 H59           -9.0936     1.9361     2.3641 H       
  60 H60           -7.6431     3.7428     0.3651 H       
  61 H61           -8.0791     4.1857     2.0363 H       
@<TRIPOS>BOND
   1    1    2 1
   2    1    7 am
   3    1    6 1
   4    2    3 1
   5    2   37 1
   6    2   38 1
   7    3    4 1
   8    3   39 1
   9    3   40 1
  10    4    5 1
  11    4   14 am
  12    5    6 1
  13    5   41 1
  14    5   42 1
  15    6   17 1
  16    6   18 1
  17    7    8 1
  18    7   13 2
  19    8    9 2
  20    8   10 1
  21    9   12 1
  22   10   11 2
  23   11   12 1
  24   11   43 1
  25   12   20 1
  26   14   15 1
  27   14   16 2
  28   15   19 ar
  29   15   31 ar
  30   17   44 1
  31   17   45 1
  32   17   46 1
  33   18   47 1
  34   18   48 1
  35   18   49 1
  36   19   28 ar
  37   19   50 1
  38   20   21 ar
  39   20   25 ar
  40   21   22 ar
  41   21   51 1
  42   22   23 ar
  43   22   26 1
  44   23   24 ar
  45   23   27 1
  46   24   25 ar
  47   24   52 1
  48   25   53 1
  49   26   54 1
  50   26   55 1
  51   26   56 1
  52   28   29 ar
  53   28   32 1
  54   29   30 ar
  55   29   33 1
  56   30   31 ar
  57   30   36 1
  58   31   57 1
  59   33   34 1
  60   34   35 1
  61   34   58 1
  62   34   59 1
  63   35   36 1
  64   35   60 1
  65   35   61 1

#	End of record

