#	Name: ASD01200309
#	Creating user name:	WinNT
#	Creation time:	15. 06. 2019 19:08

#	Modifying user name:	WinNT
#	Modification time:	15. 06. 2019 19:08

#	Program:	/corina/corina34_cracker 3.40 0067  02.08.2006

@<TRIPOS>MOLECULE
ASD01200309
  58   60    0    0    0
SMALL
NO_CHARGES


@<TRIPOS>ATOM
   1 C1            -0.0169     1.3923     0.0107 C.ar    
   2 C2             0.0018    -0.0039    -0.0058 C.ar    
   3 C3            -1.1566    -0.7209     0.0022 C.ar    
   4 C4            -2.3885    -0.0536     0.0273 C.ar    
   5 C5            -2.4138     1.3625     0.0443 C.ar    
   6 C6            -1.2122     2.0784     0.0414 C.ar    
   7 N7            -3.5543    -0.7184     0.0355 N.ar    
   8 C8            -4.6919    -0.0663     0.0588 C.ar    
   9 N9            -4.7647     1.2554     0.0749 N.ar    
  10 C10           -3.6739     2.0092     0.0692 C.ar    
  11 O11            1.1547     2.0814     0.0022 O.3     
  12 N12           -3.7637     3.3870     0.0857 N.pl3   
  13 C13           -5.0082     4.0010     0.1086 C.2     
  14 N14           -5.2039     5.2828     0.1254 N.2     
  15 C15           -6.4579     5.6953     0.1463 C.2     
  16 C16           -7.3640     4.7162     0.1471 C.2     
  17 S17           -6.5066     3.1777     0.1115 S.3     
  18 C18           -6.8350     7.1542     0.1682 C.3     
  19 P19           -7.0098     7.7624    -1.5414 P.3     
  20 O20           -5.7652     7.4859    -2.2930 O.2     
  21 C21            1.0698     3.5041    -0.1003 C.3     
  22 C22            2.3649     4.0501    -0.7050 C.3     
  23 C23            0.8643     4.1044     1.2919 C.3     
  24 O24            3.4508     3.7996     0.1895 O.3     
  25 C25            4.7138     4.2727    -0.2828 C.3     
  26 O26           -8.2444     7.0139    -2.2538 O.3     
  27 C27           -9.7948     6.3419    -3.9816 C.3     
  28 C28           -8.5743     7.1959    -3.6322 C.3     
  29 O29           -7.2833     9.3489    -1.5213 O.3     
  30 C30           -7.6310    11.5987    -2.3325 C.3     
  31 C31           -7.3624    10.1401    -2.7086 C.3     
  32 H32            0.9487    -0.5231    -0.0256 H       
  33 H33           -1.1256    -1.8004    -0.0112 H       
  34 H34           -1.2209     3.1582     0.0545 H       
  35 H35           -5.6110    -0.6333     0.0648 H       
  36 H36           -2.9571     3.9257     0.0813 H       
  37 H37           -8.4363     4.8445     0.1627 H       
  38 H38           -7.7808     7.2770     0.6960 H       
  39 H39           -6.0576     7.7228     0.6785 H       
  40 H40            0.2289     3.7728    -0.7396 H       
  41 H41            2.5575     3.5564    -1.6575 H       
  42 H42            2.2666     5.1237    -0.8655 H       
  43 H43            1.7052     3.8358     1.9312 H       
  44 H44            0.7995     5.1897     1.2137 H       
  45 H45           -0.0584     3.7155     1.7227 H       
  46 H46            5.4854     4.0444     0.4525 H       
  47 H47            4.9552     3.7837    -1.2265 H       
  48 H48            4.6643     5.3510    -0.4346 H       
  49 H49           -9.5681     5.2917    -3.7978 H       
  50 H50          -10.6394     6.6450    -3.3628 H       
  51 H51          -10.0464     6.4807    -5.0330 H       
  52 H52           -8.8010     8.2461    -3.8160 H       
  53 H53           -7.7297     6.8928    -4.2510 H       
  54 H54           -6.8204    11.9670    -1.7037 H       
  55 H55           -7.6913    12.2022    -3.2382 H       
  56 H56           -8.5727    11.6659    -1.7877 H       
  57 H57           -6.4207    10.0729    -3.2534 H       
  58 H58           -8.1730     9.7718    -3.3374 H       
@<TRIPOS>BOND
   1    1    2 ar
   2    1   11 1
   3    1    6 ar
   4    2    3 ar
   5    2   32 1
   6    3    4 ar
   7    3   33 1
   8    4    5 ar
   9    4    7 ar
  10    5    6 ar
  11    5   10 ar
  12    6   34 1
  13    7    8 ar
  14    8    9 ar
  15    8   35 1
  16    9   10 ar
  17   10   12 1
  18   11   21 1
  19   12   13 1
  20   12   36 1
  21   13   14 2
  22   13   17 1
  23   14   15 1
  24   15   16 2
  25   15   18 1
  26   16   17 1
  27   16   37 1
  28   18   19 1
  29   18   38 1
  30   18   39 1
  31   19   20 2
  32   19   26 1
  33   19   29 1
  34   21   22 1
  35   21   23 1
  36   21   40 1
  37   22   24 1
  38   22   41 1
  39   22   42 1
  40   23   43 1
  41   23   44 1
  42   23   45 1
  43   24   25 1
  44   25   46 1
  45   25   47 1
  46   25   48 1
  47   26   28 1
  48   27   28 1
  49   27   49 1
  50   27   50 1
  51   27   51 1
  52   28   52 1
  53   28   53 1
  54   29   31 1
  55   30   31 1
  56   30   54 1
  57   30   55 1
  58   30   56 1
  59   31   57 1
  60   31   58 1

#	End of record

