#	Name: ASD04570006
#	Creating user name:	WinNT
#	Creation time:	15. 06. 2019 20:49

#	Modifying user name:	WinNT
#	Modification time:	15. 06. 2019 20:49

#	Program:	/corina/corina34_cracker 3.40 0067  02.08.2006

@<TRIPOS>MOLECULE
ASD04570006
 280  286    0    0    0
SMALL
NO_CHARGES


@<TRIPOS>ATOM
   1 C1            11.4767     2.6358    -6.2917 C.3     
   2 C2            12.4321     2.8247    -5.1117 C.3     
   3 C3            12.7223     4.2923    -4.9302 C.2     
   4 N4            11.8128     2.2932    -3.8902 N.3     
   5 O5            12.4409     4.8414    -3.8861 O.2     
   6 C6            11.2802     1.1415    -6.5547 C.3     
   7 C7            10.2305     0.9503    -7.6513 C.3     
   8 C8            12.6059     0.5242    -7.0045 C.3     
   9 C9             9.7510     1.0435    -2.3409 C.3     
  10 C10           10.0188     2.5494    -2.3032 C.3     
  11 C11           11.0094     2.8562    -1.2098 C.2     
  12 N12           10.5666     2.9819    -3.5958 N.3     
  13 O13           12.0676     3.3833    -1.4807 O.2     
  14 O14           10.9902     0.3422    -2.4618 O.3     
  15 C15           11.4982     4.2894     1.5961 C.3     
  16 C16           11.6826     2.8432     1.1319 C.3     
  17 C17           11.4543     1.9100     2.2930 C.2     
  18 N18           10.7195     2.5449     0.0690 N.am    
  19 O19           10.5739     1.0777     2.2380 O.2     
  20 C20           11.8457     5.2270     0.4687 C.ar    
  21 C21           10.8663     5.6308    -0.4199 C.ar    
  22 C22           11.1822     6.4902    -1.4542 C.ar    
  23 C23           12.4835     6.9483    -1.6010 C.ar    
  24 C24           13.4644     6.5417    -0.7081 C.ar    
  25 C25           13.1421     5.6866     0.3279 C.ar    
  26 O26           12.7970     7.7935    -2.6180 O.3     
  27 C27           12.7590    -0.2169     4.2781 C.3     
  28 C28           12.0067     1.0931     4.5212 C.3     
  29 C29           12.5114     1.7345     5.7880 C.2     
  30 N30           12.2286     2.0003     3.3925 N.am    
  31 O31           13.0076     2.8406     5.7516 O.2     
  32 N32           12.3437    -2.9219     1.6558 N.pl3   
  33 C33           12.8607    -4.1272     1.2435 C.2     
  34 N34           13.8590    -4.6628     1.8881 N.2     
  35 N35           12.3247    -4.7676     0.1513 N.pl3   
  36 C36           12.1625    -0.9295     3.0627 C.3     
  37 C37           12.9148    -2.2395     2.8196 C.3     
  38 C38           11.8146     2.6086     8.7741 C.3     
  39 C39           12.9020     1.7027     8.1929 C.3     
  40 C40           13.2513     0.6315     9.1937 C.2     
  41 N41           12.4114     1.0791     6.9614 N.am    
  42 O42           12.8479    -0.5012     9.0352 O.2     
  43 S43           11.5055     3.9881     7.6374 S.3     
  44 C44           14.6480     2.2318    10.5264 C.3     
  45 C45           15.3894     2.1158    11.8749 C.3     
  46 C46           14.3433     0.0131    11.3687 C.3     
  47 C47           13.1661    -0.8732    11.6845 C.2     
  48 N48           14.0120     0.9323    10.2649 N.am    
  49 O49           12.0427    -0.5118    11.4047 O.2     
  50 C50           14.6613     0.9361    12.5715 C.3     
  51 C51           11.8627    -3.7641    11.3530 C.3     
  52 C52           12.2173    -2.9290    12.5849 C.3     
  53 C53           12.5706    -3.8451    13.7281 C.2     
  54 N54           13.3617    -2.0674    12.2779 N.am    
  55 O55           13.6701    -3.7843    14.2364 O.2     
  56 S56           11.4374    -2.6614     9.9769 S.3     
  57 C57           11.7566    -4.9031    16.6237 C.3     
  58 C58           12.0083    -5.6226    15.2971 C.3     
  59 C59           11.1554    -6.8631    15.2287 C.2     
  60 N60           11.6648    -4.7320    14.1857 N.am    
  61 O61           10.3408    -6.9908    14.3393 O.2     
  62 N62           13.3736    -1.8558    18.1937 N.pl3   
  63 C63           13.3322    -1.0549    19.3104 C.2     
  64 N64           12.4796    -1.3086    20.2631 N.2     
  65 N65           14.1900     0.0137    19.4221 N.pl3   
  66 C66           12.7112    -3.7139    16.7480 C.3     
  67 C67           12.4596    -2.9945    18.0747 C.3     
  68 C68           11.1174   -10.0502    15.1447 C.3     
  69 C69           10.4687    -9.0367    16.0896 C.3     
  70 C70           10.3470    -9.6391    17.4656 C.2     
  71 N71           11.2978    -7.8307    16.1560 N.am    
  72 O72           10.8985    -9.1129    18.4089 O.2     
  73 C73           11.1276    -9.4957    13.7435 C.ar    
  74 C74           12.2029    -8.7461    13.3046 C.ar    
  75 C75           12.2122    -8.2374    12.0193 C.ar    
  76 C76           11.1464    -8.4787    11.1727 C.ar    
  77 C77           10.0715    -9.2292    11.6113 C.ar    
  78 C78           10.0642    -9.7415    12.8951 C.ar    
  79 C79            8.3644   -10.6669    19.7414 C.3     
  80 C80            9.5069   -11.3482    18.9856 C.3     
  81 C81            9.2204   -12.8228    18.8649 C.2     
  82 N82            9.6252   -10.7626    17.6479 N.am    
  83 O83            9.1245   -13.3342    17.7693 O.2     
  84 C84            8.7072    -9.2172    19.9697 C.ar    
  85 C85            8.3467    -8.2660    19.0336 C.ar    
  86 C86            8.6612    -6.9363    19.2430 C.ar    
  87 C87            9.3358    -6.5577    20.3887 C.ar    
  88 C88            9.6955    -7.5088    21.3251 C.ar    
  89 C89            9.3771    -8.8379    21.1178 C.ar    
  90 C90           10.1081   -15.7704    19.6954 C.3     
  91 C91            8.7922   -15.0067    19.8570 C.3     
  92 C92            8.0836   -15.4840    21.0984 C.2     
  93 N93            9.0708   -13.5732    19.9743 N.am    
  94 O94            7.8356   -14.7036    21.9930 O.2     
  95 C95           10.7672   -15.3765    18.3720 C.3     
  96 C96           12.0634   -16.1287    18.2129 C.2     
  97 O97           12.4230   -16.9006    19.0700 O.2     
  98 O98           12.8183   -15.9411    17.1189 O.3     
  99 C99            5.5339   -16.9911    22.2791 C.3     
 100 C100           7.0365   -17.2421    22.4212 C.3     
 101 C101           7.2842   -18.7172    22.6052 C.2     
 102 N102           7.7254   -16.7781    21.2144 N.am    
 103 O103           7.9688   -19.3214    21.8069 O.2     
 104 O104           5.0155   -17.7930    21.2159 O.3     
 105 C105           6.8379   -21.1602    25.3152 C.3     
 106 C106           6.9858   -20.7989    23.8359 C.3     
 107 C107           5.9849   -21.5814    23.0252 C.2     
 108 N108           6.7450   -19.3650    23.6569 N.am    
 109 O109           5.1560   -21.0011    22.3661 O.2     
 110 C110           7.9174   -20.4724    26.1106 C.2     
 111 N111           7.8106   -19.2759    26.7668 N.pl3   
 112 C112           9.0049   -19.0308    27.3476 C.2     
 113 N113           9.8144   -20.0165    27.0718 N.2     
 114 C114           9.1708   -20.9196    26.3173 C.2     
 115 C115          14.9277     6.5916    -5.0543 C.3     
 116 C116          13.5765     6.4213    -5.7516 C.3     
 117 C117          13.6179     7.0955    -7.0987 C.2     
 118 N118          13.2945     4.9946    -5.9281 N.am    
 119 O119          13.4303     6.4481    -8.1069 O.2     
 120 C120          12.4842     9.4591    -8.9138 C.3     
 121 C121          13.9037     9.0735    -8.4926 C.3     
 122 C122          14.7567    10.3130    -8.4080 C.2     
 123 N123          13.8635     8.4181    -7.1831 N.am    
 124 O124          15.2795    10.6187    -7.3572 O.2     
 125 O125          11.9712    10.4435    -8.0139 O.3     
 126 C126          17.2369    11.9095    -9.6189 C.3     
 127 C127          15.7678    12.2867    -9.4177 C.3     
 128 C128          15.3477    13.2597   -10.4890 C.2     
 129 N129          14.9386    11.0817    -9.5000 N.am    
 130 O130          14.5694    12.9127   -11.3521 O.2     
 131 C131          17.6867    10.9874    -8.4839 C.3     
 132 C132          17.3991    11.1869   -10.9578 C.3     
 133 C133          15.6255    16.8731   -11.1034 C.3     
 134 C134          15.5180    15.4266   -11.5902 C.3     
 135 C135          16.4875    15.2043   -12.7223 C.2     
 136 N136          15.8369    14.5156   -10.4882 N.am    
 137 O137          17.3553    14.3708   -12.6192 O.2     
 138 C138          14.5727    17.1303   -10.0562 C.2     
 139 C139          13.3578    17.6638   -10.2595 C.2     
 140 N140          12.6792    17.7439    -9.0740 N.pl3   
 141 C141          13.4608    17.2513    -8.0531 C.ar    
 142 C142          14.6785    16.8396    -8.6244 C.ar    
 143 C143          13.2655    17.1024    -6.6837 C.ar    
 144 C144          14.2648    16.5614    -5.9050 C.ar    
 145 C145          15.4672    16.1624    -6.4727 C.ar    
 146 C146          15.6749    16.2865    -7.8175 C.ar    
 147 H147          10.5153     3.0930    -6.0575 H       
 148 H148          11.8973     3.1087    -7.1791 H       
 149 H149          13.3625     2.2920    -5.3087 H       
 150 H150          11.6673     1.2974    -3.9624 H       
 151 H151          10.9436     0.6528    -5.6404 H       
 152 H152          10.5671     1.4390    -8.5656 H       
 153 H153          10.0905    -0.1143    -7.8387 H       
 154 H154           9.2860     1.3901    -7.3308 H       
 155 H155          13.3537     0.6603    -6.2233 H       
 156 H156          12.4659    -0.5404    -7.1919 H       
 157 H157          12.9425     1.0129    -7.9189 H       
 158 H158           9.2501     0.7404    -1.4215 H       
 159 H159           9.1158     0.8087    -3.1951 H       
 160 H160           9.0865     3.0794    -2.1080 H       
 161 H161          10.6924     3.9827    -3.6186 H       
 162 H162          10.8964    -0.6198    -2.4917 H       
 163 H163          10.4611     4.4464     1.8927 H       
 164 H164          12.1526     4.4845     2.4457 H       
 165 H165          12.6956     2.7098     0.7523 H       
 166 H166           9.8732     2.1234     0.2857 H       
 167 H167           9.8535     5.2736    -0.3054 H       
 168 H168          10.4170     6.8050    -2.1483 H       
 169 H169          14.4781     6.8969    -0.8202 H       
 170 H170          13.9044     5.3733     1.0259 H       
 171 H171          12.7026     8.7296    -2.3946 H       
 172 H172          13.8116    -0.0025     4.0932 H       
 173 H173          12.6672    -0.8568     5.1557 H       
 174 H174          10.9407     0.8873     4.6178 H       
 175 H175          12.9328     2.6659     3.4364 H       
 176 H176          11.6007    -2.5233     1.1761 H       
 177 H177          14.2238    -5.5132     1.5972 H       
 178 H178          11.5818    -4.3690    -0.3283 H       
 179 H179          12.6895    -5.6180    -0.1395 H       
 180 H180          11.1099    -1.1439     3.2475 H       
 181 H181          12.2543    -0.2896     2.1851 H       
 182 H182          12.8230    -2.8794     3.6972 H       
 183 H183          13.9674    -2.0251     2.6347 H       
 184 H184          10.8972     2.0353     8.9076 H       
 185 H185          12.1430     2.9983     9.7376 H       
 186 H186          13.7891     2.2960     7.9712 H       
 187 H187          12.0145     0.1945     6.9905 H       
 188 H188          10.5450     4.6889     8.2661 H       
 189 H189          13.8882     3.0109    10.5869 H       
 190 H190          15.3574     2.4638     9.7321 H       
 191 H191          16.4420     1.8803    11.7173 H       
 192 H192          15.2809     3.0324    12.4547 H       
 193 H193          15.2136    -0.5907    11.1114 H       
 194 H194          15.3184     0.4372    13.2838 H       
 195 H195          13.7459     1.2741    13.0573 H       
 196 H196          12.7171    -4.3807    11.0738 H       
 197 H197          11.0112    -4.4051    11.5814 H       
 198 H198          11.3629    -2.3124    12.8641 H       
 199 H199          14.2602    -2.3564    12.5017 H       
 200 H200          11.1529    -3.5178     8.9796 H       
 201 H201          10.7268    -4.5471    16.6543 H       
 202 H202          11.9270    -5.5937    17.4496 H       
 203 H203          13.0600    -5.9005    15.2283 H       
 204 H204          10.7854    -4.7806    13.7792 H       
 205 H205          14.0081    -1.6670    17.4847 H       
 206 H206          12.4504    -0.7435    21.0510 H       
 207 H207          14.8245     0.2025    18.7131 H       
 208 H208          14.1607     0.5788    20.2100 H       
 209 H209          13.7410    -4.0699    16.7174 H       
 210 H210          12.5408    -3.0233    15.9222 H       
 211 H211          12.6300    -3.6851    18.9006 H       
 212 H212          11.4298    -2.6385    18.1053 H       
 213 H213          12.1408   -10.2436    15.4664 H       
 214 H214          10.5489   -10.9800    15.1634 H       
 215 H215           9.4776    -8.7763    15.7180 H       
 216 H216          11.9493    -7.7287    16.8674 H       
 217 H217          13.0356    -8.5575    13.9660 H       
 218 H218          13.0520    -7.6511    11.6766 H       
 219 H219          11.1534    -8.0807    10.1687 H       
 220 H220           9.2387    -9.4175    10.9499 H       
 221 H221           9.2261   -10.3309    13.2366 H       
 222 H222           7.4486   -10.7355    19.1543 H       
 223 H223           8.2183   -11.1613    20.7017 H       
 224 H224          10.4402   -11.2028    19.5297 H       
 225 H225           9.1841   -11.1835    16.8935 H       
 226 H226           7.8197    -8.5618    18.1385 H       
 227 H227           8.3802    -6.1933    18.5113 H       
 228 H228           9.5821    -5.5190    20.5519 H       
 229 H229          10.2228    -7.2131    22.2201 H       
 230 H230           9.6548    -9.5805    21.8512 H       
 231 H231          10.7753   -15.5235    20.5212 H       
 232 H232           9.9089   -16.8420    19.6972 H       
 233 H233           8.1601   -15.1840    18.9869 H       
 234 H234           9.1475   -13.1642    20.8505 H       
 235 H235          10.1001   -15.6234    17.5462 H       
 236 H236          10.9665   -14.3048    18.3702 H       
 237 H237          13.6411   -16.4458    17.0615 H       
 238 H238           5.0320   -17.2538    23.2103 H       
 239 H239           5.3608   -15.9380    22.0576 H       
 240 H240           7.4152   -16.6993    23.2872 H       
 241 H241           7.9237   -17.4023    20.4988 H       
 242 H242           4.0659   -17.6847    21.0686 H       
 243 H243           5.8606   -20.8357    25.6726 H       
 244 H244           6.9291   -22.2396    25.4365 H       
 245 H245           7.9942   -21.0425    23.5014 H       
 246 H246           6.0089   -22.6611    23.0338 H       
 247 H247           6.1975   -18.8818    24.2954 H       
 248 H248           7.0240   -18.7098    26.8072 H       
 249 H249           9.2497   -18.1627    27.9416 H       
 250 H250           9.5857   -21.8423    25.9395 H       
 251 H251          15.1376     7.6531    -4.9230 H       
 252 H252          14.8978     6.1039    -4.0799 H       
 253 H253          15.7104     6.1391    -5.6632 H       
 254 H254          12.7939     6.8738    -5.1427 H       
 255 H255          13.5196     4.5553    -6.7631 H       
 256 H256          12.5031     9.8658    -9.9249 H       
 257 H257          11.8455     8.5762    -8.8891 H       
 258 H258          14.3279     8.3901    -9.2282 H       
 259 H259          14.0135     8.9359    -6.3767 H       
 260 H260          11.0728    10.7354    -8.2208 H       
 261 H261          17.8474    12.8124    -9.6171 H       
 262 H262          15.6420    12.7481    -8.4382 H       
 263 H263          14.5204    10.8372   -10.3404 H       
 264 H264          18.7605    10.8155    -8.5593 H       
 265 H265          17.4599    11.4539    -7.5253 H       
 266 H266          17.1604    10.0358    -8.5586 H       
 267 H267          16.7886    10.2839   -10.9596 H       
 268 H268          17.0786    11.8438   -11.7664 H       
 269 H269          18.4457    10.9181   -11.1011 H       
 270 H270          16.6134    17.0395   -10.6739 H       
 271 H271          15.4756    17.5513   -11.9435 H       
 272 H272          14.5030    15.2348   -11.9381 H       
 273 H273          16.4063    15.7903   -13.6258 H       
 274 H274          16.4000    14.8162    -9.7578 H       
 275 H275          12.9731    17.9831   -11.2169 H       
 276 H276          11.7814    18.0956    -8.9685 H       
 277 H277          12.3337    17.4101    -6.2327 H       
 278 H278          14.1114    16.4469    -4.8421 H       
 279 H279          16.2406    15.7404    -5.8480 H       
 280 H280          16.6120    15.9720    -8.2524 H       
@<TRIPOS>BOND
   1    1    6 1
   2    1    2 1
   3    1  147 1
   4    1  148 1
   5    2    4 1
   6    2    3 1
   7    2  149 1
   8    3    5 2
   9    3  118 am
  10    4   12 1
  11    4  150 1
  12    6    7 1
  13    6    8 1
  14    6  151 1
  15    7  152 1
  16    7  153 1
  17    7  154 1
  18    8  155 1
  19    8  156 1
  20    8  157 1
  21    9   14 1
  22    9   10 1
  23    9  158 1
  24    9  159 1
  25   10   12 1
  26   10   11 1
  27   10  160 1
  28   11   13 2
  29   11   18 am
  30   12  161 1
  31   14  162 1
  32   15   20 1
  33   15   16 1
  34   15  163 1
  35   15  164 1
  36   16   17 1
  37   16   18 1
  38   16  165 1
  39   17   19 2
  40   17   30 am
  41   18  166 1
  42   20   21 ar
  43   20   25 ar
  44   21   22 ar
  45   21  167 1
  46   22   23 ar
  47   22  168 1
  48   23   24 ar
  49   23   26 1
  50   24   25 ar
  51   24  169 1
  52   25  170 1
  53   26  171 1
  54   27   36 1
  55   27   28 1
  56   27  172 1
  57   27  173 1
  58   28   30 1
  59   28   29 1
  60   28  174 1
  61   29   31 2
  62   29   41 am
  63   30  175 1
  64   32   37 1
  65   32   33 1
  66   32  176 1
  67   33   34 2
  68   33   35 1
  69   34  177 1
  70   35  178 1
  71   35  179 1
  72   36   37 1
  73   36  180 1
  74   36  181 1
  75   37  182 1
  76   37  183 1
  77   38   43 1
  78   38   39 1
  79   38  184 1
  80   38  185 1
  81   39   40 1
  82   39   41 1
  83   39  186 1
  84   40   42 2
  85   40   48 am
  86   41  187 1
  87   43  188 1
  88   44   48 1
  89   44   45 1
  90   44  189 1
  91   44  190 1
  92   45   50 1
  93   45  191 1
  94   45  192 1
  95   46   48 1
  96   46   47 1
  97   46   50 1
  98   46  193 1
  99   47   49 2
 100   47   54 am
 101   50  194 1
 102   50  195 1
 103   51   56 1
 104   51   52 1
 105   51  196 1
 106   51  197 1
 107   52   53 1
 108   52   54 1
 109   52  198 1
 110   53   55 2
 111   53   60 am
 112   54  199 1
 113   56  200 1
 114   57   66 1
 115   57   58 1
 116   57  201 1
 117   57  202 1
 118   58   60 1
 119   58   59 1
 120   58  203 1
 121   59   61 2
 122   59   71 am
 123   60  204 1
 124   62   67 1
 125   62   63 1
 126   62  205 1
 127   63   64 2
 128   63   65 1
 129   64  206 1
 130   65  207 1
 131   65  208 1
 132   66   67 1
 133   66  209 1
 134   66  210 1
 135   67  211 1
 136   67  212 1
 137   68   73 1
 138   68   69 1
 139   68  213 1
 140   68  214 1
 141   69   70 1
 142   69   71 1
 143   69  215 1
 144   70   72 2
 145   70   82 am
 146   71  216 1
 147   73   74 ar
 148   73   78 ar
 149   74   75 ar
 150   74  217 1
 151   75   76 ar
 152   75  218 1
 153   76   77 ar
 154   76  219 1
 155   77   78 ar
 156   77  220 1
 157   78  221 1
 158   79   84 1
 159   79   80 1
 160   79  222 1
 161   79  223 1
 162   80   81 1
 163   80   82 1
 164   80  224 1
 165   81   83 2
 166   81   93 am
 167   82  225 1
 168   84   85 ar
 169   84   89 ar
 170   85   86 ar
 171   85  226 1
 172   86   87 ar
 173   86  227 1
 174   87   88 ar
 175   87  228 1
 176   88   89 ar
 177   88  229 1
 178   89  230 1
 179   90   95 1
 180   90   91 1
 181   90  231 1
 182   90  232 1
 183   91   93 1
 184   91   92 1
 185   91  233 1
 186   92   94 2
 187   92  102 am
 188   93  234 1
 189   95   96 1
 190   95  235 1
 191   95  236 1
 192   96   97 2
 193   96   98 1
 194   98  237 1
 195   99  104 1
 196   99  100 1
 197   99  238 1
 198   99  239 1
 199  100  102 1
 200  100  101 1
 201  100  240 1
 202  101  103 2
 203  101  108 am
 204  102  241 1
 205  104  242 1
 206  105  110 1
 207  105  106 1
 208  105  243 1
 209  105  244 1
 210  106  107 1
 211  106  108 1
 212  106  245 1
 213  107  109 2
 214  107  246 1
 215  108  247 1
 216  110  111 1
 217  110  114 2
 218  111  112 1
 219  111  248 1
 220  112  113 2
 221  112  249 1
 222  113  114 1
 223  114  250 1
 224  115  116 1
 225  115  251 1
 226  115  252 1
 227  115  253 1
 228  116  117 1
 229  116  118 1
 230  116  254 1
 231  117  119 2
 232  117  123 am
 233  118  255 1
 234  120  125 1
 235  120  121 1
 236  120  256 1
 237  120  257 1
 238  121  123 1
 239  121  122 1
 240  121  258 1
 241  122  124 2
 242  122  129 am
 243  123  259 1
 244  125  260 1
 245  126  131 1
 246  126  132 1
 247  126  127 1
 248  126  261 1
 249  127  129 1
 250  127  128 1
 251  127  262 1
 252  128  130 2
 253  128  136 am
 254  129  263 1
 255  131  264 1
 256  131  265 1
 257  131  266 1
 258  132  267 1
 259  132  268 1
 260  132  269 1
 261  133  138 1
 262  133  134 1
 263  133  270 1
 264  133  271 1
 265  134  135 1
 266  134  136 1
 267  134  272 1
 268  135  137 2
 269  135  273 1
 270  136  274 1
 271  138  139 2
 272  138  142 1
 273  139  140 1
 274  139  275 1
 275  140  141 1
 276  140  276 1
 277  141  142 ar
 278  141  143 ar
 279  142  146 ar
 280  143  144 ar
 281  143  277 1
 282  144  145 ar
 283  144  278 1
 284  145  146 ar
 285  145  279 1
 286  146  280 1

#	End of record

