#	Name: ASD00069120
#	Creating user name:	WinNT
#	Creation time:	15. 06. 2019 18:29

#	Modifying user name:	WinNT
#	Modification time:	15. 06. 2019 18:29

#	Program:	/corina/corina34_cracker 3.40 0067  02.08.2006

@<TRIPOS>MOLECULE
ASD00069120
  44   46    0    0    0
SMALL
NO_CHARGES


@<TRIPOS>ATOM
   1 C1            -8.1238     2.0527    -3.5511 C.2     
   2 N2            -8.1277     0.7671    -3.8339 N.2     
   3 C3            -9.0332     0.5293    -4.7803 C.2     
   4 C4            -9.6251     1.7042    -5.1104 C.2     
   5 N5            -9.0557     2.6686    -4.3385 N.pl3   
   6 C6            -7.2658     2.7138    -2.5521 C.2     
   7 O7            -7.3512     3.9143    -2.3762 O.2     
   8 N8            -6.3865     1.9882    -1.8332 N.am    
   9 Br9           -9.4267    -1.1588    -5.5362 Br      
  10 C10           -5.4914     2.6296    -0.9679 C.ar    
  11 C11           -4.8608     1.9088     0.0453 C.ar    
  12 C12           -3.9744     2.5509     0.8997 C.ar    
  13 C13           -3.7199     3.9025     0.7433 C.ar    
  14 C14           -4.3466     4.6160    -0.2617 C.ar    
  15 C15           -5.2256     3.9826    -1.1203 C.ar    
  16 F16           -3.3611     1.8570     1.8833 F       
  17 N17           -5.1208     0.5412     0.2011 N.3     
  18 C18           -5.7729     0.2729     1.4892 C.3     
  19 C19           -6.1722    -1.2026     1.5628 C.3     
  20 C20           -4.9215    -2.0729     1.4115 C.3     
  21 C21           -4.2347    -1.7395     0.0842 C.3     
  22 C22           -3.8916    -0.2484     0.0535 C.3     
  23 N23           -6.8037    -1.4745     2.8564 N.am    
  24 C24           -7.6664    -2.5023     2.9824 C.2     
  25 O25           -7.9205    -3.2039     2.0224 O.2     
  26 N26           -8.2474    -2.7524     4.1725 N.am    
  27 H27          -10.4019     1.8471    -5.8470 H       
  28 H28           -9.2705     3.6145    -4.3456 H       
  29 H29           -6.3737     1.0218    -1.9151 H       
  30 H30           -3.0304     4.4012     1.4084 H       
  31 H31           -4.1452     5.6706    -0.3792 H       
  32 H32           -5.7093     4.5424    -1.9071 H       
  33 H33           -5.0825     0.5032     2.3006 H       
  34 H34           -6.6630     0.8951     1.5822 H       
  35 H35           -6.8733    -1.4303     0.7599 H       
  36 H36           -4.2370    -1.8735     2.2360 H       
  37 H37           -5.2066    -3.1250     1.4199 H       
  38 H38           -3.3203    -2.3254    -0.0096 H       
  39 H39           -4.9053    -1.9757    -0.7420 H       
  40 H40           -3.4153    -0.0048    -0.8962 H       
  41 H41           -3.2100    -0.0157     0.8717 H       
  42 H42           -6.6010    -0.9147     3.6222 H       
  43 H43           -8.0447    -2.1927     4.9384 H       
  44 H44           -8.8683    -3.4921     4.2632 H       
@<TRIPOS>BOND
   1    1    2 2
   2    1    5 1
   3    1    6 1
   4    2    3 1
   5    3    4 2
   6    3    9 1
   7    4    5 1
   8    4   27 1
   9    5   28 1
  10    6    7 2
  11    6    8 am
  12    8   10 1
  13    8   29 1
  14   10   11 ar
  15   10   15 ar
  16   11   12 ar
  17   11   17 1
  18   12   13 ar
  19   12   16 1
  20   13   14 ar
  21   13   30 1
  22   14   15 ar
  23   14   31 1
  24   15   32 1
  25   17   18 1
  26   17   22 1
  27   18   19 1
  28   18   33 1
  29   18   34 1
  30   19   20 1
  31   19   23 1
  32   19   35 1
  33   20   21 1
  34   20   36 1
  35   20   37 1
  36   21   22 1
  37   21   38 1
  38   21   39 1
  39   22   40 1
  40   22   41 1
  41   23   24 am
  42   23   42 1
  43   24   25 2
  44   24   26 am
  45   26   43 1
  46   26   44 1

#	End of record

