#	Name: ASD01916684
#	Creating user name:	WinNT
#	Creation time:	15. 06. 2019 20:07

#	Modifying user name:	WinNT
#	Modification time:	15. 06. 2019 20:07

#	Program:	/corina/corina34_cracker 3.40 0067  02.08.2006

@<TRIPOS>MOLECULE
ASD01916684
  35   37    0    0    0
SMALL
NO_CHARGES


@<TRIPOS>ATOM
   1 N1            -0.0158     1.3164     0.0093 N.ar    
   2 C2             0.0021    -0.0041     0.0020 C.ar    
   3 C3             1.2111    -0.7213    -0.0129 C.ar    
   4 C4             2.3969    -0.0506    -0.0206 C.ar    
   5 C5             2.3681     1.3588    -0.0132 C.ar    
   6 C6             3.5527     2.1108    -0.0209 C.ar    
   7 C7             3.4874     3.4715    -0.0139 C.ar    
   8 C8             2.2590     4.1282     0.0013 C.ar    
   9 C9             1.0902     3.4306     0.0091 C.ar    
  10 C10            1.1165     2.0246     0.0023 C.ar    
  11 C11           -1.2374    -0.7212     0.0100 C.1     
  12 C12           -2.2536    -1.3091     0.0165 C.1     
  13 C13           -3.5277    -2.0462     0.0247 C.3     
  14 C14           -3.2469    -3.5502     0.0140 C.3     
  15 C15           -4.5513    -4.3048     0.0224 C.ar    
  16 C16           -5.1609    -4.6445    -1.1709 C.ar    
  17 C17           -6.3575    -5.3367    -1.1632 C.ar    
  18 C18           -6.9441    -5.6896     0.0378 C.ar    
  19 C19           -6.3340    -5.3507     1.2310 C.ar    
  20 C20           -5.1352    -4.6623     1.2232 C.ar    
  21 H21            1.1998    -1.8012    -0.0179 H       
  22 H22            3.3353    -0.5851    -0.0317 H       
  23 H23            4.5113     1.6134    -0.0320 H       
  24 H24            4.4001     4.0487    -0.0199 H       
  25 H25            2.2336     5.2078     0.0073 H       
  26 H26            0.1461     3.9550     0.0205 H       
  27 H27           -4.0910    -1.7882     0.9215 H       
  28 H28           -4.1079    -1.7786    -0.8583 H       
  29 H29           -2.6836    -3.8082    -0.8828 H       
  30 H30           -2.6666    -3.8178     0.8970 H       
  31 H31           -4.7026    -4.3688    -2.1091 H       
  32 H32           -6.8342    -5.6015    -2.0954 H       
  33 H33           -7.8793    -6.2298     0.0438 H       
  34 H34           -6.7924    -5.6261     2.1692 H       
  35 H35           -4.6567    -4.4008     2.1554 H       
@<TRIPOS>BOND
   1    1    2 ar
   2    1   10 ar
   3    2    3 ar
   4    2   11 1
   5    3    4 ar
   6    3   21 1
   7    4    5 ar
   8    4   22 1
   9    5    6 ar
  10    5   10 ar
  11    6    7 ar
  12    6   23 1
  13    7    8 ar
  14    7   24 1
  15    8    9 ar
  16    8   25 1
  17    9   10 ar
  18    9   26 1
  19   11   12 3
  20   12   13 1
  21   13   14 1
  22   13   27 1
  23   13   28 1
  24   14   15 1
  25   14   29 1
  26   14   30 1
  27   15   16 ar
  28   15   20 ar
  29   16   17 ar
  30   16   31 1
  31   17   18 ar
  32   17   32 1
  33   18   19 ar
  34   18   33 1
  35   19   20 ar
  36   19   34 1
  37   20   35 1

#	End of record

