#	Name: ASD01814699
#	Creating user name:	WinNT
#	Creation time:	15. 06. 2019 19:32

#	Modifying user name:	WinNT
#	Modification time:	15. 06. 2019 19:32

#	Program:	/corina/corina34_cracker 3.40 0067  02.08.2006

@<TRIPOS>MOLECULE
ASD01814699
  40   43    0    0    0
SMALL
NO_CHARGES


@<TRIPOS>ATOM
   1 C1            -0.0166     1.3763     0.0096 C.ar    
   2 C2             1.1928     2.0965     0.0019 C.ar    
   3 N3             2.3743     1.4503    -0.0133 N.2     
   4 C4             2.4284     0.1493    -0.0209 C.2     
   5 C5             1.1930    -0.6418    -0.0134 C.2     
   6 N6             0.0021    -0.0041     0.0020 N.am    
   7 C7             1.1578     3.4993     0.0099 C.ar    
   8 C8            -0.0406     4.1512     0.0248 C.ar    
   9 C9            -1.2335     3.4406     0.0329 C.ar    
  10 C10           -1.2270     2.0627     0.0191 C.ar    
  11 O11            1.2404    -1.8586    -0.0208 O.2     
  12 C12           -1.2496    -0.7653     0.0104 C.3     
  13 C13           -1.6929    -1.0187    -1.4075 C.ar    
  14 C14           -1.2725    -2.1592    -2.0675 C.ar    
  15 C15           -1.6760    -2.3964    -3.3661 C.ar    
  16 C16           -2.5080    -1.4846    -4.0118 C.ar    
  17 C17           -2.9284    -0.3376    -3.3424 C.ar    
  18 C18           -2.5233    -0.1127    -2.0422 C.ar    
  19 C19           -2.9447    -1.7343    -5.4087 C.2     
  20 C20           -2.5993    -2.8450    -6.2028 C.2     
  21 N21           -3.1761    -2.7068    -7.3671 N.2     
  22 N22           -3.9066    -1.5123    -7.3626 N.pl3   
  23 C23           -3.7585    -0.9324    -6.1545 C.2     
  24 C24           -4.6995    -0.9862    -8.4765 C.3     
  25 H25            3.3864    -0.3493    -0.0331 H       
  26 H26            2.0792     4.0626     0.0044 H       
  27 H27           -0.0617     5.2310     0.0309 H       
  28 H28           -2.1737     3.9719     0.0454 H       
  29 H29           -2.1589     1.5168     0.0201 H       
  30 H30           -1.0925    -1.7172     0.5176 H       
  31 H31           -2.0173    -0.1964     0.5349 H       
  32 H32           -0.6272    -2.8653    -1.5661 H       
  33 H33           -1.3469    -3.2870    -3.8807 H       
  34 H34           -3.5735     0.3724    -3.8385 H       
  35 H35           -2.8520     0.7742    -1.5209 H       
  36 H36           -1.9673    -3.6676    -5.9020 H       
  37 H37           -4.2016    -0.0004    -5.8357 H       
  38 H38           -5.7205    -1.3608    -8.4045 H       
  39 H39           -4.7082     0.1029    -8.4338 H       
  40 H40           -4.2596    -1.3092    -9.4201 H       
@<TRIPOS>BOND
   1    1    6 1
   2    1    2 ar
   3    1   10 ar
   4    2    3 1
   5    2    7 ar
   6    3    4 2
   7    4    5 1
   8    4   25 1
   9    5    6 am
  10    5   11 2
  11    6   12 1
  12    7    8 ar
  13    7   26 1
  14    8    9 ar
  15    8   27 1
  16    9   10 ar
  17    9   28 1
  18   10   29 1
  19   12   13 1
  20   12   30 1
  21   12   31 1
  22   13   14 ar
  23   13   18 ar
  24   14   15 ar
  25   14   32 1
  26   15   16 ar
  27   15   33 1
  28   16   17 ar
  29   16   19 1
  30   17   18 ar
  31   17   34 1
  32   18   35 1
  33   19   20 1
  34   19   23 2
  35   20   21 2
  36   20   36 1
  37   21   22 1
  38   22   23 1
  39   22   24 1
  40   23   37 1
  41   24   38 1
  42   24   39 1
  43   24   40 1

#	End of record

