#	Name: ASD01883421
#	Creating user name:	WinNT
#	Creation time:	15. 06. 2019 19:46

#	Modifying user name:	WinNT
#	Modification time:	15. 06. 2019 19:46

#	Program:	/corina/corina34_cracker 3.40 0067  02.08.2006

@<TRIPOS>MOLECULE
ASD01883421
  59   60    0    0    0
SMALL
NO_CHARGES


@<TRIPOS>ATOM
   1 N1             0.0040     1.2790     0.3538 N.am    
   2 C2            -0.7473     1.5012    -0.7408 C.2     
   3 C3            -1.9958     0.8489    -0.8837 C.2     
   4 C4            -2.4217    -0.0211     0.1299 C.2     
   5 C5            -1.5943    -0.2128     1.2484 C.2     
   6 C6            -0.4084     0.4317     1.3311 C.2     
   7 O7            -0.3535     2.2632    -1.6074 O.2     
   8 C8            -2.8083     1.0738    -2.0413 C.1     
   9 N9            -3.4528     1.2523    -2.9596 N.1     
  10 C10           -3.5664    -2.0870    -0.0870 C.3     
  11 C11           -4.8475    -2.6851     0.4989 C.3     
  12 C12           -4.7847    -4.2125     0.4005 C.3     
  13 N13           -4.5285    -4.5863    -0.9971 N.am    
  14 C14           -3.3722    -3.9966    -1.6855 C.3     
  15 C15           -3.4509    -2.4716    -1.5638 C.3     
  16 C16           -5.3386    -5.4538    -1.6355 C.2     
  17 O17           -5.0920    -5.7874    -2.9163 O.3     
  18 C18            1.2940     1.9598     0.4903 C.3     
  19 C19            1.0921     3.2960     1.2078 C.3     
  20 C20            2.4393     4.0071     1.3503 C.3     
  21 C21            2.2217     5.3958     1.9545 C.3     
  22 C22            3.3529     3.1900     2.2660 C.3     
  23 O23           -3.6076    -0.6636     0.0325 O.3     
  24 O24           -6.2916    -5.9349    -1.0550 O.2     
  25 C25           -6.0060    -6.7273    -3.5404 C.3     
  26 C26           -7.4208    -6.1448    -3.5324 C.3     
  27 C27           -5.5679    -6.9828    -4.9839 C.3     
  28 C28           -5.9926    -8.0448    -2.7626 C.3     
  29 H29           -1.9034    -0.8784     2.0408 H       
  30 H30            0.2193     0.2760     2.1960 H       
  31 H31           -2.7040    -2.4723     0.4570 H       
  32 H32           -4.9411    -2.3914     1.5444 H       
  33 H33           -5.7086    -2.3196    -0.0606 H       
  34 H34           -3.9790    -4.5865     1.0323 H       
  35 H35           -5.7340    -4.6390     0.7247 H       
  36 H36           -2.4513    -4.3530    -1.2238 H       
  37 H37           -3.3895    -4.2805    -2.7377 H       
  38 H38           -4.3251    -2.1081    -2.1038 H       
  39 H39           -2.5504    -2.0259    -1.9863 H       
  40 H40            1.9748     1.3358     1.0693 H       
  41 H41            1.7169     2.1385    -0.4983 H       
  42 H42            0.4113     3.9201     0.6287 H       
  43 H43            0.6692     3.1173     2.1964 H       
  44 H44            2.9033     4.1064     0.3690 H       
  45 H45            1.7577     5.2964     2.9357 H       
  46 H46            3.1814     5.9023     2.0560 H       
  47 H47            1.5708     5.9779     1.3021 H       
  48 H48            2.8889     3.0906     3.2473 H       
  49 H49            3.5080     2.2006     1.8356 H       
  50 H50            4.3127     3.6965     2.3676 H       
  51 H51           -7.4304    -5.2062    -4.0865 H       
  52 H52           -8.1069    -6.8503    -4.0009 H       
  53 H53           -7.7329    -5.9627    -2.5040 H       
  54 H54           -4.5600    -7.3978    -4.9896 H       
  55 H55           -6.2540    -7.6884    -5.4524 H       
  56 H56           -5.5775    -6.0442    -5.5381 H       
  57 H57           -6.3047    -7.8628    -1.7342 H       
  58 H58           -6.6787    -8.7503    -3.2311 H       
  59 H59           -4.9847    -8.4598    -2.7683 H       
@<TRIPOS>BOND
   1    1    2 am
   2    1   18 1
   3    1    6 1
   4    2    3 1
   5    2    7 2
   6    3    4 2
   7    3    8 1
   8    4    5 1
   9    4   23 1
  10    5    6 2
  11    5   29 1
  12    6   30 1
  13    8    9 3
  14   10   11 1
  15   10   23 1
  16   10   15 1
  17   10   31 1
  18   11   12 1
  19   11   32 1
  20   11   33 1
  21   12   13 1
  22   12   34 1
  23   12   35 1
  24   13   14 1
  25   13   16 am
  26   14   15 1
  27   14   36 1
  28   14   37 1
  29   15   38 1
  30   15   39 1
  31   16   17 1
  32   16   24 2
  33   17   25 1
  34   18   19 1
  35   18   40 1
  36   18   41 1
  37   19   20 1
  38   19   42 1
  39   19   43 1
  40   20   21 1
  41   20   22 1
  42   20   44 1
  43   21   45 1
  44   21   46 1
  45   21   47 1
  46   22   48 1
  47   22   49 1
  48   22   50 1
  49   25   26 1
  50   25   27 1
  51   25   28 1
  52   26   51 1
  53   26   52 1
  54   26   53 1
  55   27   54 1
  56   27   55 1
  57   27   56 1
  58   28   57 1
  59   28   58 1
  60   28   59 1

#	End of record

