#	Name: ASD01912613
#	Creating user name:	WinNT
#	Creation time:	15. 06. 2019 20:00

#	Modifying user name:	WinNT
#	Modification time:	15. 06. 2019 20:00

#	Program:	/corina/corina34_cracker 3.40 0067  02.08.2006

@<TRIPOS>MOLECULE
ASD01912613
  61   65    0    0    0
SMALL
NO_CHARGES


@<TRIPOS>ATOM
   1 C1             0.0006     1.4166    -0.3889 C.ar    
   2 C2            -1.2143     1.9575     0.0321 C.ar    
   3 C3             1.2605     2.1625    -0.1733 C.2     
   4 N4             1.3791     3.5089     0.0077 N.pl3   
   5 C5             2.5140     1.6276    -0.1136 C.2     
   6 C6             3.4194     2.6795     0.1043 C.2     
   7 N7             2.7378     3.8036     0.1765 N.2     
   8 C8             4.8922     2.5459     0.2347 C.ar    
   9 C9             5.5009     1.3069     0.0382 C.ar    
  10 C10            5.6670     3.6572     0.5472 C.ar    
  11 C11            7.0500     3.5242     0.6675 C.ar    
  12 C12            7.6472     2.2766     0.4735 C.ar    
  13 C13            6.8710     1.1793     0.1587 C.ar    
  14 C14            0.2792     4.4765     0.0222 C.3     
  15 C15           -0.1676     4.7079     1.4428 C.2     
  16 N16           -1.1746     5.5657     1.7013 N.am    
  17 O17            0.3788     4.1222     2.3534 O.2     
  18 C18           -1.6262     5.8060     3.0802 C.3     
  19 C19           -1.6555     7.3183     3.3262 C.3     
  20 N20           -2.4660     7.9648     2.2855 N.3     
  21 C21           -1.8713     7.7795     0.9551 C.3     
  22 C22           -1.8468     6.2908     0.6124 C.3     
  23 C23           -2.6508     9.3100     2.5639 C.ar    
  24 C24           -3.3928    10.1147     1.7027 C.ar    
  25 C25           -3.5489    11.4562     2.0262 C.ar    
  26 N26           -2.9883    11.9221     3.1391 N.ar    
  27 C27           -2.2931    11.1301     3.9297 C.ar    
  28 N28           -2.1263     9.8509     3.6614 N.ar    
  29 C29           -2.3855     1.2569    -0.1713 C.ar    
  30 C30           -2.3565     0.0205    -0.7914 C.ar    
  31 C31           -1.1548    -0.5213    -1.2112 C.ar    
  32 C32            0.0238     0.1671    -1.0087 C.ar    
  33 C33            7.8557     4.6637     0.9887 C.1     
  34 N34            8.4948     5.5677     1.2435 N.1     
  35 O35           -4.2619    12.2793     1.2192 O.3     
  36 C36           -4.3752    13.6454     1.6230 C.3     
  37 H37           -1.2381     2.9224     0.5166 H       
  38 H38            2.7654     0.5822    -0.2154 H       
  39 H39            4.8994     0.4445    -0.2086 H       
  40 H40            5.1998     4.6195     0.6958 H       
  41 H41            8.7180     2.1711     0.5658 H       
  42 H42            7.3365     0.2163     0.0094 H       
  43 H43            0.6179     5.4181    -0.4100 H       
  44 H44           -0.5547     4.0876    -0.5622 H       
  45 H45           -2.6262     5.3937     3.2151 H       
  46 H46           -0.9354     5.3347     3.7792 H       
  47 H47           -2.0922     7.5193     4.3045 H       
  48 H48           -0.6396     7.7119     3.2930 H       
  49 H49           -2.4644     8.3150     0.2137 H       
  50 H50           -0.8524     8.1667     0.9549 H       
  51 H51           -1.3042     6.1387    -0.3206 H       
  52 H52           -2.8673     5.9217     0.5101 H       
  53 H53           -3.8351     9.7060     0.8061 H       
  54 H54           -1.8510    11.5400     4.8257 H       
  55 H55           -3.3267     1.6744     0.1545 H       
  56 H56           -3.2759    -0.5241    -0.9481 H       
  57 H57           -1.1387    -1.4869    -1.6946 H       
  58 H58            0.9613    -0.2567    -1.3372 H       
  59 H59           -4.9692    14.1926     0.8910 H       
  60 H60           -4.8613    13.6972     2.5973 H       
  61 H61           -3.3815    14.0884     1.6888 H       
@<TRIPOS>BOND
   1    1    2 ar
   2    1    3 1
   3    1   32 ar
   4    2   29 ar
   5    2   37 1
   6    3    4 1
   7    3    5 2
   8    4   14 1
   9    4    7 1
  10    5    6 1
  11    5   38 1
  12    6    7 2
  13    6    8 1
  14    8    9 ar
  15    8   10 ar
  16    9   13 ar
  17    9   39 1
  18   10   11 ar
  19   10   40 1
  20   11   12 ar
  21   11   33 1
  22   12   13 ar
  23   12   41 1
  24   13   42 1
  25   14   15 1
  26   14   43 1
  27   14   44 1
  28   15   16 am
  29   15   17 2
  30   16   18 1
  31   16   22 1
  32   18   19 1
  33   18   45 1
  34   18   46 1
  35   19   20 1
  36   19   47 1
  37   19   48 1
  38   20   21 1
  39   20   23 1
  40   21   22 1
  41   21   49 1
  42   21   50 1
  43   22   51 1
  44   22   52 1
  45   23   24 ar
  46   23   28 ar
  47   24   25 ar
  48   24   53 1
  49   25   26 ar
  50   25   35 1
  51   26   27 ar
  52   27   28 ar
  53   27   54 1
  54   29   30 ar
  55   29   55 1
  56   30   31 ar
  57   30   56 1
  58   31   32 ar
  59   31   57 1
  60   32   58 1
  61   33   34 3
  62   35   36 1
  63   36   59 1
  64   36   60 1
  65   36   61 1

#	End of record

