#	Name: ASD01820237
#	Creating user name:	WinNT
#	Creation time:	15. 06. 2019 19:36

#	Modifying user name:	WinNT
#	Modification time:	15. 06. 2019 19:36

#	Program:	/corina/corina34_cracker 3.40 0067  02.08.2006

@<TRIPOS>MOLECULE
ASD01820237
 147  165    0    0    0
SMALL
NO_CHARGES


@<TRIPOS>ATOM
   1 I1            -5.7171     8.3584     0.3678 I       
   2 C2            -3.7562     7.6268     0.2752 C.ar    
   3 C3            -3.0287     7.7509    -0.8966 C.ar    
   4 C4            -1.7352     7.2718    -0.9692 C.ar    
   5 C5            -1.1568     6.6620     0.1351 C.ar    
   6 C6            -1.8906     6.5354     1.3225 C.ar    
   7 C7            -3.1930     7.0283     1.3842 C.ar    
   8 C8            -1.2838     5.8867     2.5065 C.ar    
   9 C9            -1.8860     4.7899     3.1343 C.ar    
  10 C10           -1.3211     4.1862     4.2358 C.ar    
  11 C11           -0.1210     4.6305     4.7877 C.ar    
  12 C12            0.4884     5.7081     4.1855 C.ar    
  13 C13           -0.0672     6.3378     3.0562 C.ar    
  14 C14            0.8125     7.4339     2.6651 C.2     
  15 O15            0.6201     8.1796     1.7253 O.2     
  16 O16            1.8701     7.4987     3.4988 O.3     
  17 C17            1.7565     6.4397     4.4954 C.3     
  18 C18            1.6810     7.0507     5.8686 C.ar    
  19 C19            0.8867     8.1656     6.0710 C.ar    
  20 C20            0.8038     8.7426     7.3237 C.ar    
  21 C21            1.5157     8.2064     8.3809 C.ar    
  22 C22            2.3086     7.0937     8.1852 C.ar    
  23 C23            2.3937     6.5098     6.9260 C.ar    
  24 O24            3.1729     5.4152     6.7571 O.3     
  25 C25            3.5881     5.0555     5.5193 C.ar    
  26 C26            2.9421     5.5194     4.3851 C.ar    
  27 C27            3.3863     5.1344     3.1324 C.ar    
  28 C28            4.4717     4.2884     3.0088 C.ar    
  29 C29            5.1190     3.8238     4.1389 C.ar    
  30 C30            4.6809     4.2051     5.3913 C.ar    
  31 N31            0.1482     6.1770     0.0635 N.pl3   
  32 C32            1.2179     7.0573     0.1051 C.ar    
  33 C33            2.5084     6.5863     0.3889 C.ar    
  34 C34            3.5848     7.4785     0.4298 C.ar    
  35 C35            3.3862     8.8191     0.1933 C.ar    
  36 C36            2.1086     9.3041    -0.0905 C.ar    
  37 C37            1.0175     8.4213    -0.1417 C.ar    
  38 C38           -0.3373     8.9309    -0.4419 C.ar    
  39 C39           -1.3531     8.9354     0.5227 C.ar    
  40 C40           -2.6151     9.4096     0.2422 C.ar    
  41 C41           -2.9542     9.9112    -1.0132 C.ar    
  42 C42           -1.9704     9.9169    -1.9763 C.ar    
  43 C43           -0.6721     9.4430    -1.7122 C.ar    
  44 C44            0.1223     9.5847    -2.9273 C.2     
  45 O45            1.2899     9.2666    -3.0369 O.2     
  46 O46           -0.6283    10.1198    -3.9114 O.3     
  47 C47           -1.9720    10.3709    -3.4023 C.3     
  48 C48           -2.9668     9.5721    -4.2003 C.ar    
  49 C49           -2.6747     8.2598    -4.5280 C.ar    
  50 C50           -3.5744     7.5087    -5.2599 C.ar    
  51 C51           -4.7713     8.0676    -5.6684 C.ar    
  52 C52           -5.0682     9.3760    -5.3442 C.ar    
  53 C53           -4.1660    10.1343    -4.6060 C.ar    
  54 O54           -4.4797    11.4140    -4.2935 O.3     
  55 C55           -3.5098    12.2873    -3.9320 C.ar    
  56 C56           -2.2743    11.8424    -3.4918 C.ar    
  57 C57           -1.3020    12.7569    -3.1268 C.ar    
  58 C58           -1.5596    14.1124    -3.1994 C.ar    
  59 C59           -2.7918    14.5599    -3.6390 C.ar    
  60 C60           -3.7648    13.6524    -4.0056 C.ar    
  61 C61            1.9047    10.7476    -0.3434 C.ar    
  62 C62            2.4321    11.3778    -1.4767 C.ar    
  63 C63            2.2426    12.7222    -1.7117 C.ar    
  64 C64            1.5171    13.5293    -0.8383 C.ar    
  65 C65            0.9888    12.9285     0.2833 C.ar    
  66 C66            1.1646    11.5574     0.5413 C.ar    
  67 C67            0.4891    11.2376     1.7955 C.2     
  68 O68            0.4508    10.1351     2.3044 O.2     
  69 O69           -0.0853    12.3450     2.3067 O.3     
  70 C70            0.1723    13.4699     1.4146 C.3     
  71 C71            0.9466    14.5277     2.1537 C.ar    
  72 C72            1.9936    14.1501     2.9760 C.ar    
  73 C73            2.7169    15.1052     3.6643 C.ar    
  74 C74            2.3958    16.4438     3.5332 C.ar    
  75 C75            1.3533    16.8263     2.7134 C.ar    
  76 C76            0.6240    15.8679     2.0183 C.ar    
  77 O77           -0.3913    16.2653     1.2151 O.3     
  78 C78           -1.3494    15.3857     0.8379 C.ar    
  79 C79           -1.1354    14.0193     0.9116 C.ar    
  80 C80           -2.1312    13.1430     0.5175 C.ar    
  81 C81           -3.3382    13.6264     0.0499 C.ar    
  82 C82           -3.5553    14.9899    -0.0245 C.ar    
  83 C83           -2.5664    15.8685     0.3690 C.ar    
  84 C84            2.7299     5.1517     0.6443 C.2     
  85 O85            1.7960     4.4387     0.9579 O.2     
  86 N86            3.9674     4.6302     0.5304 N.am    
  87 O87            4.1802     3.2519     0.7758 O.3     
  88 C88            5.5384     2.8365     0.6185 C.3     
  89 C89            5.6500     1.3380     0.9068 C.3     
  90 C90            4.8629     0.5560    -0.1467 C.3     
  91 O91            3.9173    -0.4124     0.3116 O.3     
  92 C92            3.3522     0.7858    -0.2240 C.3     
  93 C93            7.1205     0.9179     0.8606 C.3     
  94 C94            7.2444    -0.5509     1.2706 C.3     
  95 O95            7.7320    -1.4754     0.2960 O.3     
  96 C96            8.6483    -1.1545     1.3445 C.3     
  97 H97           -3.4752     8.2245    -1.7584 H       
  98 H98           -1.1736     7.3716    -1.8863 H       
  99 H99           -3.7640     6.9340     2.2961 H       
 100 H100          -2.8179     4.4074     2.7449 H       
 101 H101          -1.8237     3.3429     4.6859 H       
 102 H102           0.3128     4.1497     5.6520 H       
 103 H103           0.3299     8.5864     5.2468 H       
 104 H104           0.1831     9.6130     7.4772 H       
 105 H105           1.4515     8.6583     9.3597 H       
 106 H106           2.8647     6.6761     9.0115 H       
 107 H107           2.8825     5.4961     2.2482 H       
 108 H108           4.8145     3.9896     2.0292 H       
 109 H109           5.9673     3.1625     4.0419 H       
 110 H110           5.1878     3.8420     6.2731 H       
 111 H111           0.3076     5.2234    -0.0154 H       
 112 H112           4.5772     7.1130     0.6485 H       
 113 H113           4.2236     9.5002     0.2279 H       
 114 H114          -1.1411     8.5568     1.5117 H       
 115 H115          -3.3654     9.3920     1.0189 H       
 116 H116          -3.9476    10.2799    -1.2219 H       
 117 H117          -1.7404     7.8210    -4.2102 H       
 118 H118          -3.3424     6.4847    -5.5133 H       
 119 H119          -5.4737     7.4805    -6.2414 H       
 120 H120          -6.0032     9.8116    -5.6640 H       
 121 H121          -0.3385    12.4098    -2.7836 H       
 122 H122          -0.7983    14.8227    -2.9122 H       
 123 H123          -2.9926    15.6195    -3.6962 H       
 124 H124          -4.7267    14.0030    -4.3494 H       
 125 H125           3.0025    10.7952    -2.1850 H       
 126 H126           2.6699    13.1638    -2.5999 H       
 127 H127           1.3751    14.5823    -1.0321 H       
 128 H128           2.2459    13.1053     3.0804 H       
 129 H129           3.5332    14.8062     4.3051 H       
 130 H130           2.9605    17.1899     4.0725 H       
 131 H131           1.1033    17.8721     2.6120 H       
 132 H132          -1.9642    12.0775     0.5752 H       
 133 H133          -4.1122    12.9389    -0.2579 H       
 134 H134          -4.4988    15.3673    -0.3902 H       
 135 H135          -2.7374    16.9333     0.3115 H       
 136 H136           4.7123     5.1989     0.2803 H       
 137 H137           5.8631     3.0352    -0.4028 H       
 138 H138           6.1701     3.3884     1.3145 H       
 139 H139           5.2427     1.1269     1.8955 H       
 140 H140           5.3939     0.3474    -1.0755 H       
 141 H141           2.9100     1.4956     0.4751 H       
 142 H142           2.8796     0.7303    -1.2047 H       
 143 H143           7.5034     1.0461    -0.1518 H       
 144 H144           7.6969     1.5369     1.5481 H       
 145 H145           6.4991    -0.9081     1.9812 H       
 146 H146           9.4922    -0.5088     1.1016 H       
 147 H147           8.8359    -1.9126     2.1049 H       
@<TRIPOS>BOND
   1    1    2 1
   2    2    3 ar
   3    2    7 ar
   4    3    4 ar
   5    3   97 1
   6    4    5 ar
   7    4   98 1
   8    5    6 ar
   9    5   31 1
  10    6    7 ar
  11    6    8 1
  12    7   99 1
  13    8    9 ar
  14    8   13 ar
  15    9   10 ar
  16    9  100 1
  17   10   11 ar
  18   10  101 1
  19   11   12 ar
  20   11  102 1
  21   12   13 ar
  22   12   17 1
  23   13   14 1
  24   14   15 2
  25   14   16 1
  26   16   17 1
  27   17   18 1
  28   17   26 1
  29   18   19 ar
  30   18   23 ar
  31   19   20 ar
  32   19  103 1
  33   20   21 ar
  34   20  104 1
  35   21   22 ar
  36   21  105 1
  37   22   23 ar
  38   22  106 1
  39   23   24 1
  40   24   25 1
  41   25   26 ar
  42   25   30 ar
  43   26   27 ar
  44   27   28 ar
  45   27  107 1
  46   28   29 ar
  47   28  108 1
  48   29   30 ar
  49   29  109 1
  50   30  110 1
  51   31   32 1
  52   31  111 1
  53   32   33 ar
  54   32   37 ar
  55   33   34 ar
  56   33   84 1
  57   34   35 ar
  58   34  112 1
  59   35   36 ar
  60   35  113 1
  61   36   37 ar
  62   36   61 1
  63   37   38 1
  64   38   39 ar
  65   38   43 ar
  66   39   40 ar
  67   39  114 1
  68   40   41 ar
  69   40  115 1
  70   41   42 ar
  71   41  116 1
  72   42   43 ar
  73   42   47 1
  74   43   44 1
  75   44   45 2
  76   44   46 1
  77   46   47 1
  78   47   48 1
  79   47   56 1
  80   48   49 ar
  81   48   53 ar
  82   49   50 ar
  83   49  117 1
  84   50   51 ar
  85   50  118 1
  86   51   52 ar
  87   51  119 1
  88   52   53 ar
  89   52  120 1
  90   53   54 1
  91   54   55 1
  92   55   56 ar
  93   55   60 ar
  94   56   57 ar
  95   57   58 ar
  96   57  121 1
  97   58   59 ar
  98   58  122 1
  99   59   60 ar
 100   59  123 1
 101   60  124 1
 102   61   62 ar
 103   61   66 ar
 104   62   63 ar
 105   62  125 1
 106   63   64 ar
 107   63  126 1
 108   64   65 ar
 109   64  127 1
 110   65   66 ar
 111   65   70 1
 112   66   67 1
 113   67   68 2
 114   67   69 1
 115   69   70 1
 116   70   71 1
 117   70   79 1
 118   71   72 ar
 119   71   76 ar
 120   72   73 ar
 121   72  128 1
 122   73   74 ar
 123   73  129 1
 124   74   75 ar
 125   74  130 1
 126   75   76 ar
 127   75  131 1
 128   76   77 1
 129   77   78 1
 130   78   79 ar
 131   78   83 ar
 132   79   80 ar
 133   80   81 ar
 134   80  132 1
 135   81   82 ar
 136   81  133 1
 137   82   83 ar
 138   82  134 1
 139   83  135 1
 140   84   85 2
 141   84   86 am
 142   86   87 1
 143   86  136 1
 144   87   88 1
 145   88   89 1
 146   88  137 1
 147   88  138 1
 148   89   90 1
 149   89   93 1
 150   89  139 1
 151   90   91 1
 152   90   92 1
 153   90  140 1
 154   91   92 1
 155   92  141 1
 156   92  142 1
 157   93   94 1
 158   93  143 1
 159   93  144 1
 160   94   95 1
 161   94   96 1
 162   94  145 1
 163   95   96 1
 164   96  146 1
 165   96  147 1

#	End of record

