#	Name: ASD01884069
#	Creating user name:	WinNT
#	Creation time:	15. 06. 2019 19:47

#	Modifying user name:	WinNT
#	Modification time:	15. 06. 2019 19:47

#	Program:	/corina/corina34_cracker 3.40 0067  02.08.2006

@<TRIPOS>MOLECULE
ASD01884069
  60   63    0    0    0
SMALL
NO_CHARGES


@<TRIPOS>ATOM
   1 O1            -0.0161     1.3381     0.0094 O.3     
   2 C2             0.0021    -0.0041     0.0020 C.2     
   3 O3             1.0565    -0.5939    -0.0112 O.2     
   4 C4            -1.2926    -0.7753     0.0102 C.3     
   5 F5            -1.0184    -2.1471     0.0003 F       
   6 F6            -2.0198    -0.4534     1.1613 F       
   7 F7            -2.0416    -0.4412    -1.1232 F       
   8 H8             0.8394     1.7888     0.0037 H       
   9 C9             6.7227     7.5451     9.4020 C.3     
  10 O10            8.0092     7.9509     9.8735 O.3     
  11 C11            8.6626     8.8957     9.1474 C.ar    
  12 C12            8.0751     9.4252     8.0084 C.ar    
  13 C13            8.7426    10.3876     7.2712 C.ar    
  14 F14            8.1717    10.9045     6.1613 F       
  15 C15            9.9954    10.8210     7.6714 C.ar    
  16 C16           10.5813    10.2932     8.8069 C.ar    
  17 C17            9.9162     9.3360     9.5481 C.ar    
  18 C18           10.5538     8.7663    10.7891 C.3     
  19 H19           10.2258     7.7652    11.0689 H       
  20 C20           12.0124     9.1353    11.0669 C.3     
  21 C21           10.8939     9.7400    11.9192 C.3     
  22 H22           10.6565    10.7926    11.7651 H       
  23 C23           10.7481     9.2338    13.3556 C.3     
  24 O24           10.9942    10.3072    14.2662 O.3     
  25 C25           10.8029    10.0521    15.5857 C.2     
  26 C26           11.6307     9.1284    16.2568 C.2     
  27 C27           11.4429     8.8739    17.5671 C.2     
  28 N28           10.4519     9.5038    18.2614 N.pl3   
  29 C29           10.0328     9.4516    19.5577 C.2     
  30 C30           10.6225     8.5986    20.6513 C.3     
  31 C31           11.7349     9.3745    21.3594 C.3     
  32 C32           11.5315     9.7096    22.8383 C.3     
  33 C33           12.5412     8.6353    22.4292 C.3     
  34 N34            9.0264    10.2768    19.6788 N.2     
  35 N35            8.7782    10.8477    18.5527 N.2     
  36 C36            9.6283    10.4089    17.6375 C.2     
  37 C37            9.8109    10.6930    16.2726 C.2     
  38 C38            8.9199    11.6880    15.5747 C.3     
  39 F39            9.3784    11.8887    14.2684 F       
  40 F40            7.6104    11.1968    15.5390 F       
  41 F41            8.9436    12.9024    16.2690 F       
  42 H42            6.0565     8.4075     9.3765 H       
  43 H43            6.8178     7.1297     8.3988 H       
  44 H44            6.3124     6.7888    10.0711 H       
  45 H45            7.0980     9.0868     7.6968 H       
  46 H46           10.5156    11.5721     7.0955 H       
  47 H47           11.5585    10.6328     9.1172 H       
  48 H48           12.6440     8.3771    11.5298 H       
  49 H49           12.5108     9.7901    10.3520 H       
  50 H50            9.7376     8.8540    13.5062 H       
  51 H51           11.4671     8.4341    13.5338 H       
  52 H52           12.4184     8.6224    15.7184 H       
  53 H53           12.0824     8.1647    18.0717 H       
  54 H54            9.8449     8.3409    21.3703 H       
  55 H55           11.0341     7.6867    20.2188 H       
  56 H56           12.2632    10.1042    20.7457 H       
  57 H57           11.9258    10.6600    23.1979 H       
  58 H58           10.6051     9.3773    23.3068 H       
  59 H59           12.2790     7.5962    22.6285 H       
  60 H60           13.5997     8.8789    22.5196 H       
@<TRIPOS>BOND
   1    1    2 1
   2    1    8 1
   3    2    3 2
   4    2    4 1
   5    4    5 1
   6    4    6 1
   7    4    7 1
   8    9   10 1
   9    9   42 1
  10    9   43 1
  11    9   44 1
  12   10   11 1
  13   11   17 ar
  14   11   12 ar
  15   12   13 ar
  16   12   45 1
  17   13   14 1
  18   13   15 ar
  19   15   16 ar
  20   15   46 1
  21   16   17 ar
  22   16   47 1
  23   17   18 1
  24   18   19 1
  25   18   21 1
  26   18   20 1
  27   20   21 1
  28   20   48 1
  29   20   49 1
  30   21   22 1
  31   21   23 1
  32   23   24 1
  33   23   50 1
  34   23   51 1
  35   24   25 1
  36   25   37 2
  37   25   26 1
  38   26   27 2
  39   26   52 1
  40   27   28 1
  41   27   53 1
  42   28   36 1
  43   28   29 1
  44   29   30 1
  45   29   34 2
  46   30   31 1
  47   30   54 1
  48   30   55 1
  49   31   33 1
  50   31   32 1
  51   31   56 1
  52   32   33 1
  53   32   57 1
  54   32   58 1
  55   33   59 1
  56   33   60 1
  57   34   35 1
  58   35   36 2
  59   36   37 1
  60   37   38 1
  61   38   39 1
  62   38   40 1
  63   38   41 1

#	End of record

