#	Name: ASD01120326
#	Creating user name:	WinNT
#	Creation time:	15. 06. 2019 18:59

#	Modifying user name:	WinNT
#	Modification time:	15. 06. 2019 18:59

#	Program:	/corina/corina34_cracker 3.40 0067  02.08.2006

@<TRIPOS>MOLECULE
ASD01120326
  31   33    0    0    0
SMALL
NO_CHARGES


@<TRIPOS>ATOM
   1 Cl1            0.0021    -0.0041     0.0020 Cl      
   2 C2            -0.0215     1.7317     0.0116 C.ar    
   3 C3             1.1696     2.4378     0.0040 C.ar    
   4 C4             1.1567     3.8173     0.0115 C.ar    
   5 C5            -0.0590     4.5007     0.0263 C.ar    
   6 C6            -1.2558     3.7844     0.0334 C.ar    
   7 C7            -1.2313     2.4051     0.0210 C.ar    
   8 C8            -0.0791     5.9818     0.0350 C.ar    
   9 C9             0.6896     6.6861     0.9498 C.ar    
  10 C10            0.6716     8.0722     0.9589 C.ar    
  11 C11           -0.1067     8.7738     0.0642 C.ar    
  12 C12           -0.8892     8.0953    -0.8664 C.ar    
  13 C13           -0.8762     6.6880    -0.8915 C.ar    
  14 C14           -1.7520     6.2833    -1.9228 C.2     
  15 C15           -2.2687     7.4060    -2.4923 C.2     
  16 N16           -1.7446     8.5160    -1.8577 N.pl3   
  17 C17           -3.2253     7.4337    -3.6059 C.2     
  18 O18           -3.6192     6.3926    -4.0950 O.2     
  19 O19           -3.6670     8.6138    -4.0863 O.3     
  20 N20           -0.1111    10.2539     0.0926 N.pl3   
  21 O21            0.5724    10.8494     0.9060 O.2     
  22 O22           -0.7984    10.8761    -0.6974 O.2     
  23 H23            2.1105     1.9076    -0.0075 H       
  24 H24            2.0863     4.3670     0.0063 H       
  25 H25           -2.2000     4.3087     0.0452 H       
  26 H26           -2.1574     1.8495     0.0265 H       
  27 H27            1.3048     6.1520     1.6587 H       
  28 H28            1.2748     8.6087     1.6764 H       
  29 H29           -1.9720     5.2653    -2.2086 H       
  30 H30           -1.9507     9.4393    -2.0720 H       
  31 H31           -4.2960     8.5814    -4.8200 H       
@<TRIPOS>BOND
   1    1    2 1
   2    2    3 ar
   3    2    7 ar
   4    3    4 ar
   5    3   23 1
   6    4    5 ar
   7    4   24 1
   8    5    6 ar
   9    5    8 1
  10    6    7 ar
  11    6   25 1
  12    7   26 1
  13    8    9 ar
  14    8   13 ar
  15    9   10 ar
  16    9   27 1
  17   10   11 ar
  18   10   28 1
  19   11   12 ar
  20   11   20 1
  21   12   13 ar
  22   12   16 1
  23   13   14 1
  24   14   15 2
  25   14   29 1
  26   15   16 1
  27   15   17 1
  28   16   30 1
  29   17   18 2
  30   17   19 1
  31   19   31 1
  32   20   21 2
  33   20   22 2

#	End of record

