#	Name: ASD05213018
#	Creating user name:	WinNT
#	Creation time:	15. 06. 2019 20:57

#	Modifying user name:	WinNT
#	Modification time:	15. 06. 2019 20:57

#	Program:	/corina/corina34_cracker 3.40 0067  02.08.2006

@<TRIPOS>MOLECULE
ASD05213018
  32   34    0    0    0
SMALL
NO_CHARGES


@<TRIPOS>ATOM
   1 S1            -0.0225     1.8057     0.0120 S.3     
   2 C2             0.0021    -0.0041     0.0020 C.3     
   3 C3             1.7084     2.1353    -0.0028 C.2     
   4 N4             2.6488     1.2226    -0.0171 N.2     
   5 C5             3.8675     1.8233    -0.0262 C.ar    
   6 C6             3.6455     3.2102    -0.0166 C.ar    
   7 N7             2.2706     3.3806    -0.0069 N.pl3   
   8 C8             5.1771     1.3366    -0.0424 C.ar    
   9 C9             6.2344     2.2186    -0.0487 C.ar    
  10 C10            6.0094     3.5872    -0.0387 C.ar    
  11 C11            4.7222     4.0837    -0.0228 C.ar    
  12 C12           -1.4117    -0.5257     0.0127 C.ar    
  13 C13           -2.0693    -0.7576    -1.1824 C.ar    
  14 C14           -3.3633    -1.2355    -1.1799 C.ar    
  15 C15           -4.0095    -1.4851     0.0324 C.ar    
  16 C16           -3.3401    -1.2489     1.2347 C.ar    
  17 C17           -2.0443    -0.7759     1.2176 C.ar    
  18 C18           -5.3954    -1.9965     0.0429 C.2     
  19 O19           -5.9754    -2.2006    -1.0047 O.2     
  20 O20           -6.0160    -2.2363     1.2142 O.3     
  21 H21            0.5123    -0.3556    -0.8948 H       
  22 H22            0.5293    -0.3651     0.8851 H       
  23 H23            1.7957     4.2264     0.0011 H       
  24 H24            5.3595     0.2721    -0.0496 H       
  25 H25            7.2465     1.8419    -0.0613 H       
  26 H26            6.8473     4.2686    -0.0431 H       
  27 H27            4.5537     5.1505    -0.0155 H       
  28 H28           -1.5683    -0.5637    -2.1194 H       
  29 H29           -3.8755    -1.4157    -2.1135 H       
  30 H30           -3.8343    -1.4395     2.1759 H       
  31 H31           -1.5254    -0.5927     2.1468 H       
  32 H32           -6.9225    -2.5702     1.1704 H       
@<TRIPOS>BOND
   1    1    2 1
   2    1    3 1
   3    2   12 1
   4    2   21 1
   5    2   22 1
   6    3    4 2
   7    3    7 1
   8    4    5 1
   9    5    6 ar
  10    5    8 ar
  11    6    7 1
  12    6   11 ar
  13    7   23 1
  14    8    9 ar
  15    8   24 1
  16    9   10 ar
  17    9   25 1
  18   10   11 ar
  19   10   26 1
  20   11   27 1
  21   12   13 ar
  22   12   17 ar
  23   13   14 ar
  24   13   28 1
  25   14   15 ar
  26   14   29 1
  27   15   16 ar
  28   15   18 1
  29   16   17 ar
  30   16   30 1
  31   17   31 1
  32   18   19 2
  33   18   20 1
  34   20   32 1

#	End of record

