#	Name: ASD05250021
#	Creating user name:	WinNT
#	Creation time:	15. 06. 2019 20:58

#	Modifying user name:	WinNT
#	Modification time:	15. 06. 2019 20:58

#	Program:	/corina/corina34_cracker 3.40 0067  02.08.2006

@<TRIPOS>MOLECULE
ASD05250021
  44   47    0    0    0
SMALL
NO_CHARGES


@<TRIPOS>ATOM
   1 O1             0.0032    -0.0032    -0.0076 O.2     
   2 C2            -0.0141     1.2124    -0.0007 C.2     
   3 N3             1.1433     1.9029    -0.0174 N.am    
   4 C4             1.2496     3.3643    -0.0109 C.3     
   5 C5             2.7581     3.6592    -0.0360 C.3     
   6 C6             3.4130     2.2959    -0.0555 C.ar    
   7 C7             2.4190     1.3294    -0.0373 C.ar    
   8 C8             2.7800    -0.0173    -0.0499 C.ar    
   9 C9             4.1207    -0.3809    -0.0803 C.ar    
  10 C10            5.1084     0.6025    -0.0983 C.ar    
  11 C11            4.7478     1.9343    -0.0814 C.ar    
  12 C12            4.5009    -1.8153    -0.0931 C.ar    
  13 C13            3.5154    -2.7999    -0.0747 C.ar    
  14 C14            3.8747    -4.1327    -0.0867 C.ar    
  15 C15            5.2100    -4.4913    -0.1164 C.ar    
  16 C16            6.1927    -3.5177    -0.1344 C.ar    
  17 C17            5.8447    -2.1823    -0.1293 C.ar    
  18 C18            7.6458    -3.9162    -0.1658 C.3     
  19 F19            7.7466    -5.3115    -0.1716 F       
  20 F20            8.2459    -3.4004    -1.3195 F       
  21 F21            8.2936    -3.4065     0.9646 F       
  22 N22           -1.1906     1.8696     0.0179 N.am    
  23 C23           -2.3876     1.1602    -0.0856 C.ar    
  24 C24           -3.5293     1.5810     0.5946 C.ar    
  25 C25           -4.6933     0.8521     0.4656 C.ar    
  26 N26           -4.7339    -0.2297    -0.2892 N.ar    
  27 C27           -3.6749    -0.6601    -0.9486 C.ar    
  28 C28           -2.4744     0.0155    -0.8766 C.ar    
  29 H29            0.7679     3.7823    -0.8947 H       
  30 H30            0.7997     3.7720     0.8944 H       
  31 H31            3.0209     4.2200    -0.9330 H       
  32 H32            3.0527     4.2097     0.8574 H       
  33 H33            2.0154    -0.7799    -0.0356 H       
  34 H34            6.1514     0.3232    -0.1220 H       
  35 H35            5.5113     2.6980    -0.0953 H       
  36 H36            2.4723    -2.5210    -0.0507 H       
  37 H37            3.1116    -4.8968    -0.0724 H       
  38 H38            5.4867    -5.5352    -0.1254 H       
  39 H39            6.6127    -1.4231    -0.1437 H       
  40 H40           -1.2052     2.8357     0.1032 H       
  41 H41           -3.5028     2.4652     1.2142 H       
  42 H42           -5.5826     1.1705     0.9893 H       
  43 H43           -3.7501    -1.5503    -1.5554 H       
  44 H44           -1.6115    -0.3420    -1.4187 H       
@<TRIPOS>BOND
   1    1    2 2
   2    2    3 am
   3    2   22 am
   4    3    4 1
   5    3    7 1
   6    4    5 1
   7    4   29 1
   8    4   30 1
   9    5    6 1
  10    5   31 1
  11    5   32 1
  12    6    7 ar
  13    6   11 ar
  14    7    8 ar
  15    8    9 ar
  16    8   33 1
  17    9   10 ar
  18    9   12 1
  19   10   11 ar
  20   10   34 1
  21   11   35 1
  22   12   13 ar
  23   12   17 ar
  24   13   14 ar
  25   13   36 1
  26   14   15 ar
  27   14   37 1
  28   15   16 ar
  29   15   38 1
  30   16   17 ar
  31   16   18 1
  32   17   39 1
  33   18   19 1
  34   18   20 1
  35   18   21 1
  36   22   23 1
  37   22   40 1
  38   23   24 ar
  39   23   28 ar
  40   24   25 ar
  41   24   41 1
  42   25   26 ar
  43   25   42 1
  44   26   27 ar
  45   27   28 ar
  46   27   43 1
  47   28   44 1

#	End of record

