#	Name: ASD01880903
#	Creating user name:	WinNT
#	Creation time:	15. 06. 2019 19:41

#	Modifying user name:	WinNT
#	Modification time:	15. 06. 2019 19:41

#	Program:	/corina/corina34_cracker 3.40 0067  02.08.2006

@<TRIPOS>MOLECULE
ASD01880903
  42   44    0    0    0
SMALL
NO_CHARGES


@<TRIPOS>ATOM
   1 N1            -0.0158     1.3133     0.0093 N.ar    
   2 C2             0.0021    -0.0041     0.0020 C.ar    
   3 N3             1.1311    -0.6838    -0.0124 N.ar    
   4 C4             2.3017    -0.0561    -0.0202 C.ar    
   5 C5             2.3211     1.3370    -0.0129 C.ar    
   6 C6             1.1124     2.0107     0.0022 C.ar    
   7 C7             3.6257     2.0913    -0.0208 C.3     
   8 O8             4.0257     2.3369    -1.3705 O.3     
   9 C9             5.1888     3.0113    -1.5554 C.ar    
  10 C10            5.6369     3.2841    -2.8442 C.ar    
  11 C11            6.8133     3.9667    -3.0299 C.ar    
  12 C12            7.5665     4.3910    -1.9301 C.ar    
  13 C13            7.1118     4.1148    -0.6378 C.ar    
  14 C14            5.9284     3.4339    -0.4572 C.ar    
  15 C15            7.5647     4.4144    -4.2588 C.3     
  16 N16            8.7662     5.1045    -3.7756 N.am    
  17 C17            8.7632     5.0887    -2.4317 C.2     
  18 O18            9.6254     5.5806    -1.7296 O.2     
  19 C19            7.9130     4.5652     0.5565 C.3     
  20 Cl20           1.0733     3.7462     0.0114 Cl      
  21 C21            9.4366     7.1701    -4.9004 C.3     
  22 C22            9.7992     5.7106    -4.6193 C.3     
  23 O23            3.4597    -0.7601    -0.0346 O.3     
  24 C24            3.3525    -2.1850    -0.0408 C.3     
  25 H25           -0.9345    -0.5419     0.0084 H       
  26 H26            3.4995     3.0409     0.4993 H       
  27 H27            4.3904     1.4999     0.4828 H       
  28 H28            5.0600     2.9589    -3.6974 H       
  29 H29            5.5774     3.2211     0.5417 H       
  30 H30            7.8456     3.5508    -4.8616 H       
  31 H31            6.9506     5.0977    -4.8453 H       
  32 H32            7.5921     5.5636     0.8537 H       
  33 H33            7.7549     3.8718     1.3825 H       
  34 H34            8.9715     4.5859     0.2970 H       
  35 H35           10.2052     7.6211    -5.5281 H       
  36 H36            8.4762     7.2135    -5.4142 H       
  37 H37            9.3699     7.7157    -3.9591 H       
  38 H38           10.7595     5.6672    -4.1055 H       
  39 H39            9.8658     5.1650    -5.5606 H       
  40 H40            2.8212    -2.5133     0.8526 H       
  41 H41            2.8046    -2.5043    -0.9273 H       
  42 H42            4.3500    -2.6243    -0.0523 H       
@<TRIPOS>BOND
   1    1    2 ar
   2    1    6 ar
   3    2    3 ar
   4    2   25 1
   5    3    4 ar
   6    4    5 ar
   7    4   23 1
   8    5    6 ar
   9    5    7 1
  10    6   20 1
  11    7    8 1
  12    7   26 1
  13    7   27 1
  14    8    9 1
  15    9   10 ar
  16    9   14 ar
  17   10   11 ar
  18   10   28 1
  19   11   12 ar
  20   11   15 1
  21   12   13 ar
  22   12   17 1
  23   13   14 ar
  24   13   19 1
  25   14   29 1
  26   15   16 1
  27   15   30 1
  28   15   31 1
  29   16   17 am
  30   16   22 1
  31   17   18 2
  32   19   32 1
  33   19   33 1
  34   19   34 1
  35   21   22 1
  36   21   35 1
  37   21   36 1
  38   21   37 1
  39   22   38 1
  40   22   39 1
  41   23   24 1
  42   24   40 1
  43   24   41 1
  44   24   42 1

#	End of record

