#	Name: ASD01209142
#	Creating user name:	WinNT
#	Creation time:	15. 06. 2019 19:11

#	Modifying user name:	WinNT
#	Modification time:	15. 06. 2019 19:11

#	Program:	/corina/corina34_cracker 3.40 0067  02.08.2006

@<TRIPOS>MOLECULE
ASD01209142
  66   68    0    0    0
SMALL
NO_CHARGES


@<TRIPOS>ATOM
   1 C1             1.6244    -1.3081     1.5094 C.3     
   2 C2             2.2171    -1.2988    -3.7397 C.ar    
   3 S3             0.2743    -0.9925     0.3398 S.o2    
   4 O4            -0.6642    -2.0592     0.3619 O.2     
   5 O5            -0.1523     0.3604     0.4240 O.2     
   6 N6             2.8172    -1.3935    -5.0003 N.am    
   7 C7             4.1478    -1.2214    -5.1278 C.2     
   8 N8             4.7400    -1.4091    -6.3239 N.am    
   9 O9             4.8140    -0.8969    -4.1639 O.2     
  10 C10            1.9991    -1.6795    -6.1814 C.3     
  11 C11            1.6318    -0.3674    -6.8774 C.3     
  12 C12            0.8707    -0.6331    -8.1970 C.3     
  13 C13           -0.1664     0.4634    -8.2697 C.2     
  14 C14           -0.3288     1.0345    -7.1073 C.2     
  15 C15            0.5728     0.4141    -6.0656 C.3     
  16 C16            1.6702    -2.4272    -3.1429 C.ar    
  17 C17            1.0785    -2.3305    -1.8987 C.ar    
  18 C18            1.0304    -1.1117    -1.2472 C.ar    
  19 C19            1.5741     0.0137    -1.8387 C.ar    
  20 C20            2.1722    -0.0775    -3.0803 C.ar    
  21 C21            6.1277    -1.3373    -6.4334 C.ar    
  22 C22            6.7337    -1.4128    -7.6842 C.ar    
  23 P23           10.7934     0.6137    -7.0148 P.3     
  24 O24           10.2468     1.4169    -5.8983 O.2     
  25 O25           10.2265     1.1802    -8.4112 O.3     
  26 O26           12.4005     0.7106    -7.0092 O.3     
  27 C27           10.3641     2.5453    -8.8106 C.3     
  28 C28            9.7173     2.7428   -10.1831 C.3     
  29 C29           13.1054     1.9532    -7.0428 C.3     
  30 C30           14.6117     1.6856    -7.0268 C.3     
  31 N31            8.0480    -1.3444    -7.7838 N.ar    
  32 C32            8.7885    -1.2044    -6.6974 C.ar    
  33 C33            8.1898    -1.1294    -5.4535 C.ar    
  34 N34            6.8737    -1.1913    -5.3465 N.ar    
  35 C35           10.2888    -1.1267    -6.8154 C.3     
  36 H36            2.0370    -2.3008     1.3288 H       
  37 H37            2.4053    -0.5599     1.3735 H       
  38 H38            1.2423    -1.2535     2.5288 H       
  39 H39            4.2005    -1.5942    -7.1084 H       
  40 H40            2.5620    -2.3104    -6.8692 H       
  41 H41            1.0890    -2.1962    -5.8766 H       
  42 H42            2.5187     0.2414    -7.0530 H       
  43 H43            1.5504    -0.5698    -9.0467 H       
  44 H44            0.3887    -1.6103    -8.1672 H       
  45 H45           -0.7025     0.7388    -9.1659 H       
  46 H46           -1.0170     1.8444    -6.9154 H       
  47 H47            0.0059    -0.2647    -5.4284 H       
  48 H48            1.0501     1.1894    -5.4661 H       
  49 H49            1.7071    -3.3793    -3.6514 H       
  50 H50            0.6527    -3.2076    -1.4342 H       
  51 H51            1.5346     0.9643    -1.3275 H       
  52 H52            2.5970     0.8018    -3.5416 H       
  53 H53            6.1293    -1.5276    -8.5719 H       
  54 H54            9.8721     3.1887    -8.0812 H       
  55 H55           11.4218     2.8025    -8.8670 H       
  56 H56            8.6596     2.4855   -10.1267 H       
  57 H57            9.8223     3.7840   -10.4878 H       
  58 H58           10.2093     2.0994   -10.9125 H       
  59 H59           12.8424     2.4957    -7.9509 H       
  60 H60           12.8329     2.5491    -6.1717 H       
  61 H61           14.8747     1.1431    -6.1187 H       
  62 H62           14.8842     1.0896    -7.8978 H       
  63 H63           15.1494     2.6334    -7.0524 H       
  64 H64            8.7981    -1.0157    -4.5683 H       
  65 H65           10.6154    -1.7013    -7.6821 H       
  66 H66           10.7458    -1.5365    -5.9146 H       
@<TRIPOS>BOND
   1    1    3 1
   2    1   36 1
   3    1   37 1
   4    1   38 1
   5    2    6 1
   6    2   16 ar
   7    2   20 ar
   8    3    4 2
   9    3    5 2
  10    3   18 1
  11    6    7 am
  12    6   10 1
  13    7    8 am
  14    7    9 2
  15    8   21 1
  16    8   39 1
  17   10   11 1
  18   10   40 1
  19   10   41 1
  20   11   12 1
  21   11   15 1
  22   11   42 1
  23   12   13 1
  24   12   43 1
  25   12   44 1
  26   13   14 2
  27   13   45 1
  28   14   15 1
  29   14   46 1
  30   15   47 1
  31   15   48 1
  32   16   17 ar
  33   16   49 1
  34   17   18 ar
  35   17   50 1
  36   18   19 ar
  37   19   20 ar
  38   19   51 1
  39   20   52 1
  40   21   22 ar
  41   21   34 ar
  42   22   31 ar
  43   22   53 1
  44   23   24 2
  45   23   25 1
  46   23   26 1
  47   23   35 1
  48   25   27 1
  49   26   29 1
  50   27   28 1
  51   27   54 1
  52   27   55 1
  53   28   56 1
  54   28   57 1
  55   28   58 1
  56   29   30 1
  57   29   59 1
  58   29   60 1
  59   30   61 1
  60   30   62 1
  61   30   63 1
  62   31   32 ar
  63   32   33 ar
  64   32   35 1
  65   33   34 ar
  66   33   64 1
  67   35   65 1
  68   35   66 1

#	End of record

