#	Name: ASD06390014
#	Creating user name:	WinNT
#	Creation time:	15. 06. 2019 21:06

#	Modifying user name:	WinNT
#	Modification time:	15. 06. 2019 21:06

#	Program:	/corina/corina34_cracker 3.40 0067  02.08.2006

@<TRIPOS>MOLECULE
ASD06390014
  40   41    0    0    0
SMALL
NO_CHARGES


@<TRIPOS>ATOM
   1 C1            -0.0187     1.5258     0.0104 C.3     
   2 C2             0.0021    -0.0041     0.0020 C.3     
   3 C3             0.7074    -0.4901    -1.2379 C.2     
   4 O4             1.1500     0.3085    -2.0362 O.2     
   5 N5             0.8465    -1.8122    -1.4596 N.am    
   6 C6             1.5321    -2.3005    -2.6643 C.3     
   7 C7             2.6711    -3.2338    -2.2357 C.3     
   8 N8             2.1404    -4.2129    -1.2768 N.am    
   9 C9             1.4548    -3.7246    -0.0720 C.3     
  10 C10            0.3207    -2.7912    -0.4979 C.3     
  11 C11            2.2795    -5.5350    -1.4985 C.2     
  12 O12            2.8468    -5.9262    -2.4965 O.2     
  13 C13            1.7300    -6.5273    -0.5063 C.3     
  14 O14            2.0005    -7.8549    -0.9607 O.3     
  15 C15            1.5678    -8.8764    -0.1749 C.ar    
  16 C16            0.8973    -8.6061     1.0083 C.ar    
  17 C17            0.4578    -9.6457     1.8057 C.ar    
  18 C18            0.6861   -10.9558     1.4246 C.ar    
  19 C19            1.3555   -11.2285     0.2444 C.ar    
  20 C20            1.7917   -10.1918    -0.5588 C.ar    
  21 Cl21           2.6309   -10.5338    -2.0395 Cl      
  22 Cl22           0.1327   -12.2595     2.4284 Cl      
  23 H23            1.0039     1.9031     0.0027 H       
  24 H24           -0.5459     1.8868    -0.8726 H       
  25 H25           -0.5289     1.8773     0.9072 H       
  26 H26            0.5293    -0.3651     0.8851 H       
  27 H27           -1.0205    -0.3814     0.0098 H       
  28 H28            0.8269    -2.8475    -3.2901 H       
  29 H29            1.9402    -1.4566    -3.2204 H       
  30 H30            3.0662    -3.7536    -3.1085 H       
  31 H31            3.4629    -2.6519    -1.7639 H       
  32 H32            1.0467    -4.5685     0.4841 H       
  33 H33            2.1600    -3.1776     0.5538 H       
  34 H34           -0.0735    -2.2721     0.3757 H       
  35 H35           -0.4721    -3.3710    -0.9706 H       
  36 H36            2.2032    -6.3717     0.4633 H       
  37 H37            0.6531    -6.3881    -0.4115 H       
  38 H38            0.7189    -7.5836     1.3068 H       
  39 H39           -0.0642    -9.4352     2.7274 H       
  40 H40            1.5334   -12.2519    -0.0511 H       
@<TRIPOS>BOND
   1    1    2 1
   2    1   23 1
   3    1   24 1
   4    1   25 1
   5    2    3 1
   6    2   26 1
   7    2   27 1
   8    3    4 2
   9    3    5 am
  10    5    6 1
  11    5   10 1
  12    6    7 1
  13    6   28 1
  14    6   29 1
  15    7    8 1
  16    7   30 1
  17    7   31 1
  18    8    9 1
  19    8   11 am
  20    9   10 1
  21    9   32 1
  22    9   33 1
  23   10   34 1
  24   10   35 1
  25   11   12 2
  26   11   13 1
  27   13   14 1
  28   13   36 1
  29   13   37 1
  30   14   15 1
  31   15   16 ar
  32   15   20 ar
  33   16   17 ar
  34   16   38 1
  35   17   18 ar
  36   17   39 1
  37   18   19 ar
  38   18   22 1
  39   19   20 ar
  40   19   40 1
  41   20   21 1

#	End of record

