#	Name: ASD01410173
#	Creating user name:	WinNT
#	Creation time:	15. 06. 2019 19:16

#	Modifying user name:	WinNT
#	Modification time:	15. 06. 2019 19:16

#	Program:	/corina/corina34_cracker 3.40 0067  02.08.2006

@<TRIPOS>MOLECULE
ASD01410173
  30   32    0    0    0
SMALL
NO_CHARGES


@<TRIPOS>ATOM
   1 C1            -0.0185     1.3897    -0.0596 C.ar    
   2 C2             0.0018     0.0003    -0.0464 C.ar    
   3 C3            -1.1857    -0.7090    -0.0154 C.ar    
   4 C4            -2.4035    -0.0183     0.0026 C.ar    
   5 C5            -2.4227     1.3867    -0.0108 C.ar    
   6 C6            -1.2217     2.0796    -0.0362 C.ar    
   7 C7            -3.8102    -0.4464     0.0353 C.2     
   8 C8            -4.5663     0.7578     0.0388 C.2     
   9 O9            -3.7075     1.8038     0.0111 O.3     
  10 O10           -4.2367    -1.5893     0.0551 O.2     
  11 C11           -5.9266     0.8443     0.0659 C.2     
  12 C12           -6.5525     2.1068     0.1841 C.2     
  13 O13            1.1508     2.0787    -0.0901 O.3     
  14 O14           -1.1702    -2.0658    -0.0028 O.3     
  15 C15           -5.9176     3.3197     0.3909 C.2     
  16 N16           -7.9049     2.3559     0.1085 N.pl3   
  17 C17           -8.1096     3.6890     0.2692 C.2     
  18 C18           -6.9123     4.2998     0.4434 C.2     
  19 C19           -8.9485     1.3509    -0.1088 C.3     
  20 H20            0.9448    -0.5260    -0.0607 H       
  21 H21           -1.2234     3.1596    -0.0464 H       
  22 H22           -6.5261    -0.0514    -0.0028 H       
  23 H23            1.4717     2.2696    -0.9821 H       
  24 H24           -1.1477    -2.4506     0.8840 H       
  25 H25           -4.8542     3.4783     0.4929 H       
  26 H26           -9.0702     4.1825     0.2571 H       
  27 H27           -6.7548     5.3573     0.5962 H       
  28 H28           -9.2254     0.9025     0.8453 H       
  29 H29           -9.8227     1.8254    -0.5546 H       
  30 H30           -8.5737     0.5771    -0.7788 H       
@<TRIPOS>BOND
   1    1    2 ar
   2    1   13 1
   3    1    6 ar
   4    2    3 ar
   5    2   20 1
   6    3    4 ar
   7    3   14 1
   8    4    5 ar
   9    4    7 1
  10    5    6 ar
  11    5    9 1
  12    6   21 1
  13    7    8 1
  14    7   10 2
  15    8    9 1
  16    8   11 2
  17   11   12 1
  18   11   22 1
  19   12   16 1
  20   12   15 2
  21   13   23 1
  22   14   24 1
  23   15   18 1
  24   15   25 1
  25   16   17 1
  26   16   19 1
  27   17   18 2
  28   17   26 1
  29   18   27 1
  30   19   28 1
  31   19   29 1
  32   19   30 1

#	End of record

