#	Name: ASD03090541
#	Creating user name:	WinNT
#	Creation time:	15. 06. 2019 20:29

#	Modifying user name:	WinNT
#	Modification time:	15. 06. 2019 20:29

#	Program:	/corina/corina34_cracker 3.40 0067  02.08.2006

@<TRIPOS>MOLECULE
ASD03090541
  47   50    0    0    0
SMALL
NO_CHARGES


@<TRIPOS>ATOM
   1 C1            -2.3939     1.4907     0.1857 C.2     
   2 C2            -2.3819    -0.0158     0.2217 C.3     
   3 O3            -3.4490     2.0884     0.1647 O.2     
   4 N4            -1.2322     2.1740     0.1825 N.am    
   5 C5            -1.2398     3.5629     0.0440 C.ar    
   6 C6            -0.0502     4.2722     0.1643 C.ar    
   7 C7            -0.0690     5.6482     0.0253 C.ar    
   8 C8            -1.2872     6.2726    -0.2316 C.ar    
   9 C9            -2.4330     5.5006    -0.3387 C.ar    
  10 N10           -2.3781     4.1892    -0.2058 N.ar    
  11 O11           -1.3515     7.6230    -0.3749 O.3     
  12 C12           -0.2150     8.3412    -0.1724 C.ar    
  13 C13            0.7691     8.3727    -1.1497 C.ar    
  14 C14            1.9237     9.1023    -0.9438 C.ar    
  15 C15            2.0992     9.8036     0.2400 C.ar    
  16 C16            1.1152     9.7722     1.2172 C.ar    
  17 C17           -0.0419     9.0473     1.0091 C.ar    
  18 O18            3.2360    10.5215     0.4427 O.3     
  19 C19            3.3499    11.2192     1.6846 C.3     
  20 F20            3.2899    10.3040     2.7410 F       
  21 F21            4.5712    11.9003     1.7265 F       
  22 F22            2.3001    12.1365     1.8021 F       
  23 N23           -7.6683    -1.9426    -0.0397 N.pl3   
  24 C24           -7.8181    -2.0323    -1.3968 C.2     
  25 C25           -6.6903    -1.6379    -2.0087 C.2     
  26 C26           -5.7406    -1.2652    -0.9575 C.ar    
  27 C27           -4.4281    -0.7888    -0.9597 C.ar    
  28 C28           -3.7987    -0.5295     0.2249 C.ar    
  29 C29           -4.4536    -0.7359     1.4314 C.ar    
  30 C30           -5.7482    -1.2057     1.4567 C.ar    
  31 C31           -6.4085    -1.4765     0.2624 C.ar    
  32 H32           -1.8595    -0.3961    -0.6561 H       
  33 H33           -1.8710    -0.3536     1.1233 H       
  34 H34           -0.3908     1.7005     0.2765 H       
  35 H35            0.8768     3.7554     0.3643 H       
  36 H36            0.8397     6.2251     0.1141 H       
  37 H37           -3.3813     5.9777    -0.5374 H       
  38 H38            0.6327     7.8264    -2.0713 H       
  39 H39            2.6900     9.1265    -1.7044 H       
  40 H40            1.2520    10.3183     2.1388 H       
  41 H41           -0.8101     9.0268     1.7680 H       
  42 H42           -8.3497    -2.1696     0.6124 H       
  43 H43           -8.7113    -2.3706    -1.9010 H       
  44 H44           -6.5161    -1.6022    -3.0740 H       
  45 H45           -3.9120    -0.6267    -1.8945 H       
  46 H46           -3.9428    -0.5263     2.3597 H       
  47 H47           -6.2491    -1.3634     2.4004 H       
@<TRIPOS>BOND
   1    1    2 1
   2    1    3 2
   3    1    4 am
   4    2   28 1
   5    2   32 1
   6    2   33 1
   7    4    5 1
   8    4   34 1
   9    5    6 ar
  10    5   10 ar
  11    6    7 ar
  12    6   35 1
  13    7    8 ar
  14    7   36 1
  15    8    9 ar
  16    8   11 1
  17    9   10 ar
  18    9   37 1
  19   11   12 1
  20   12   13 ar
  21   12   17 ar
  22   13   14 ar
  23   13   38 1
  24   14   15 ar
  25   14   39 1
  26   15   16 ar
  27   15   18 1
  28   16   17 ar
  29   16   40 1
  30   17   41 1
  31   18   19 1
  32   19   20 1
  33   19   21 1
  34   19   22 1
  35   23   24 1
  36   23   31 1
  37   23   42 1
  38   24   25 2
  39   24   43 1
  40   25   26 1
  41   25   44 1
  42   26   27 ar
  43   26   31 ar
  44   27   28 ar
  45   27   45 1
  46   28   29 ar
  47   29   30 ar
  48   29   46 1
  49   30   31 ar
  50   30   47 1

#	End of record

