#	Name: ASD01812642
#	Creating user name:	WinNT
#	Creation time:	15. 06. 2019 19:28

#	Modifying user name:	WinNT
#	Modification time:	15. 06. 2019 19:28

#	Program:	/corina/corina34_cracker 3.40 0067  02.08.2006

@<TRIPOS>MOLECULE
ASD01812642
  50   54    0    0    0
SMALL
NO_CHARGES


@<TRIPOS>ATOM
   1 O1            -0.0163     1.3521     0.0095 O.3     
   2 C2             0.0021    -0.0041     0.0020 C.ar    
   3 C3             1.2105    -0.6847    -0.0132 C.ar    
   4 C4             1.2312    -2.0655    -0.0208 C.ar    
   5 C5             0.0448    -2.7828    -0.0133 C.ar    
   6 C6            -1.1603    -2.1224     0.0018 C.ar    
   7 C7            -1.2004    -0.7252     0.0155 C.ar    
   8 C8            -2.5947    -2.5892     0.0126 C.3     
   9 N9            -3.4200    -1.3760     0.0273 N.am    
  10 C10           -2.6104    -0.3029     0.0371 C.2     
  11 C11           -4.8845    -1.3402     0.0412 C.3     
  12 C12           -5.3733    -1.3360     1.4667 C.ar    
  13 O13           -2.9891     0.8525     0.0481 O.2     
  14 C14           -5.5712    -0.1363     2.1359 C.ar    
  15 C15           -6.0214    -0.1758     3.4439 C.ar    
  16 C16           -6.2592    -1.4120     4.0410 C.ar    
  17 N17           -6.0570    -2.5366     3.3665 N.ar    
  18 C18           -5.6342    -2.5268     2.1182 C.ar    
  19 C19           -6.7419    -1.4714     5.4423 C.2     
  20 C20           -6.9204    -2.6015     6.1872 C.2     
  21 C21           -7.0941    -0.3713     6.2494 C.2     
  22 N22           -7.4686    -0.8272     7.4149 N.2     
  23 N23           -7.3683    -2.2235     7.4002 N.pl3   
  24 C24            1.1753     2.0067     0.0016 C.ar    
  25 C25            1.7733     2.3479    -1.2035 C.ar    
  26 C26            2.9852     3.0135    -1.2085 C.ar    
  27 C27            3.6021     3.3391    -0.0147 C.ar    
  28 C28            3.0096     3.0009     1.1877 C.ar    
  29 C29            1.7939     2.3403     1.1995 C.ar    
  30 F30            1.2124     2.0148     2.3747 F       
  31 Cl31           1.0007     1.9389    -2.7033 Cl      
  32 C32           -7.6920    -3.1193     8.5133 C.3     
  33 H33            2.1388    -0.1328    -0.0195 H       
  34 H34            2.1759    -2.5889    -0.0330 H       
  35 H35            0.0677    -3.8626    -0.0196 H       
  36 H36           -2.8049    -3.1747    -0.8824 H       
  37 H37           -2.7881    -3.1849     0.9047 H       
  38 H38           -5.2307    -0.4387    -0.4642 H       
  39 H39           -5.2743    -2.2181    -0.4740 H       
  40 H40           -5.3778     0.8070     1.6469 H       
  41 H41           -6.1857     0.7388     3.9943 H       
  42 H42           -5.4851    -3.4619     1.5989 H       
  43 H43           -6.7363    -3.6150     5.8627 H       
  44 H44           -7.0600     0.6675     5.9557 H       
  45 H45            3.4507     3.2791    -2.1461 H       
  46 H46            4.5491     3.8584    -0.0215 H       
  47 H47            3.4938     3.2565     2.1186 H       
  48 H48           -6.8036    -3.2734     9.1258 H       
  49 H49           -8.4795    -2.6738     9.1211 H       
  50 H50           -8.0336    -4.0773     8.1212 H       
@<TRIPOS>BOND
   1    1    2 1
   2    1   24 1
   3    2    3 ar
   4    2    7 ar
   5    3    4 ar
   6    3   33 1
   7    4    5 ar
   8    4   34 1
   9    5    6 ar
  10    5   35 1
  11    6    8 1
  12    6    7 ar
  13    7   10 1
  14    8    9 1
  15    8   36 1
  16    8   37 1
  17    9   10 am
  18    9   11 1
  19   10   13 2
  20   11   12 1
  21   11   38 1
  22   11   39 1
  23   12   14 ar
  24   12   18 ar
  25   14   15 ar
  26   14   40 1
  27   15   16 ar
  28   15   41 1
  29   16   17 ar
  30   16   19 1
  31   17   18 ar
  32   18   42 1
  33   19   21 1
  34   19   20 2
  35   20   23 1
  36   20   43 1
  37   21   22 2
  38   21   44 1
  39   22   23 1
  40   23   32 1
  41   24   25 ar
  42   24   29 ar
  43   25   26 ar
  44   25   31 1
  45   26   27 ar
  46   26   45 1
  47   27   28 ar
  48   27   46 1
  49   28   29 ar
  50   28   47 1
  51   29   30 1
  52   32   48 1
  53   32   49 1
  54   32   50 1

#	End of record

