#	Name: ASD00960272
#	Creating user name:	WinNT
#	Creation time:	15. 06. 2019 18:53

#	Modifying user name:	WinNT
#	Modification time:	15. 06. 2019 18:53

#	Program:	/corina/corina34_cracker 3.40 0067  02.08.2006

@<TRIPOS>MOLECULE
ASD00960272
  48   51    0    0    0
SMALL
NO_CHARGES


@<TRIPOS>ATOM
   1 C1            -0.0157     1.3966     0.0272 C.2     
   2 C2             0.0028    -0.0045     0.0141 C.2     
   3 N3             1.2722     1.8202     0.0233 N.pl3   
   4 C4             2.0994     0.7294     0.0218 C.2     
   5 C5             1.3623    -0.3909     0.0086 C.2     
   6 N6             1.7871     3.1261     0.0348 N.2     
   7 C7             3.0560     3.2925    -0.1978 C.2     
   8 N8             3.8867     2.2365    -0.4916 N.pl3   
   9 C9             3.6032     0.8936     0.0455 C.3     
  10 N10            4.0996     0.7878     1.4240 N.3     
  11 C11           -1.1680    -0.9010     0.0082 C.2     
  12 N12           -0.9934    -2.2374    -0.0046 N.am    
  13 O13           -2.2911    -0.4346     0.0148 O.2     
  14 C14           -2.0982    -3.0879     0.1024 C.ar    
  15 C15           -2.1147    -4.2968    -0.5813 C.ar    
  16 C16           -3.2071    -5.1348    -0.4731 C.ar    
  17 C17           -4.2838    -4.7713     0.3149 C.ar    
  18 C18           -4.2706    -3.5684     0.9969 C.ar    
  19 C19           -3.1790    -2.7282     0.8971 C.ar    
  20 C20           -1.2093     2.2486     0.0369 C.2     
  21 O21           -2.3160     1.7447     0.0343 O.2     
  22 O22           -1.0796     3.5911     0.0487 O.3     
  23 C23           -2.3039     4.3716     0.0578 C.3     
  24 C24           -1.9637     5.8396     0.0704 C.ar    
  25 C25           -1.8097     6.5237    -1.1209 C.ar    
  26 C26           -1.4976     7.8703    -1.1094 C.ar    
  27 C27           -1.3399     8.5329     0.0935 C.ar    
  28 C28           -1.4947     7.8491     1.2848 C.ar    
  29 C29           -1.8112     6.5035     1.2733 C.ar    
  30 H30            1.7386    -1.4032    -0.0037 H       
  31 H31            3.4695     4.2895    -0.1594 H       
  32 H32            4.6633     2.3763    -1.0558 H       
  33 H33            4.0718     0.1344    -0.5807 H       
  34 H34            5.0959     0.9425     1.4625 H       
  35 H35            3.6108     1.4255     2.0343 H       
  36 H36           -0.1014    -2.6092    -0.0881 H       
  37 H37           -1.2742    -4.5811    -1.1971 H       
  38 H38           -3.2207    -6.0748    -1.0047 H       
  39 H39           -5.1371    -5.4282     0.3975 H       
  40 H40           -5.1131    -3.2874     1.6114 H       
  41 H41           -3.1692    -1.7891     1.4303 H       
  42 H42           -2.8881     4.1417    -0.8333 H       
  43 H43           -2.8850     4.1257     0.9466 H       
  44 H44           -1.9329     6.0060    -2.0607 H       
  45 H45           -1.3765     8.4045    -2.0402 H       
  46 H46           -1.0953     9.5848     0.1025 H       
  47 H47           -1.3712     8.3668     2.2246 H       
  48 H48           -1.9359     5.9701     2.2040 H       
@<TRIPOS>BOND
   1    1    2 2
   2    1    3 1
   3    1   20 1
   4    2   11 1
   5    2    5 1
   6    3    4 1
   7    3    6 1
   8    4    5 2
   9    4    9 1
  10    5   30 1
  11    6    7 2
  12    7    8 1
  13    7   31 1
  14    8    9 1
  15    8   32 1
  16    9   10 1
  17    9   33 1
  18   10   34 1
  19   10   35 1
  20   11   12 am
  21   11   13 2
  22   12   14 1
  23   12   36 1
  24   14   15 ar
  25   14   19 ar
  26   15   16 ar
  27   15   37 1
  28   16   17 ar
  29   16   38 1
  30   17   18 ar
  31   17   39 1
  32   18   19 ar
  33   18   40 1
  34   19   41 1
  35   20   21 2
  36   20   22 1
  37   22   23 1
  38   23   24 1
  39   23   42 1
  40   23   43 1
  41   24   25 ar
  42   24   29 ar
  43   25   26 ar
  44   25   44 1
  45   26   27 ar
  46   26   45 1
  47   27   28 ar
  48   27   46 1
  49   28   29 ar
  50   28   47 1
  51   29   48 1

#	End of record

