#	Name: ASD03331060
#	Creating user name:	WinNT
#	Creation time:	15. 06. 2019 20:38

#	Modifying user name:	WinNT
#	Modification time:	15. 06. 2019 20:38

#	Program:	/corina/corina34_cracker 3.40 0067  02.08.2006

@<TRIPOS>MOLECULE
ASD03331060
  55   58    0    0    0
SMALL
NO_CHARGES


@<TRIPOS>ATOM
   1 C1             0.0117     1.2589    -0.0291 C.2     
   2 O2             0.0662     0.0439    -0.0260 O.2     
   3 N3             3.3647     2.6274     0.0395 N.pl3   
   4 C4             2.5188     1.5632     0.0786 C.2     
   5 C5             2.9297     0.1200     0.2121 C.3     
   6 N6             3.9147    -0.0023     1.2981 N.3     
   7 C7             5.2786     0.1870     0.8008 C.3     
   8 C8             5.3078     1.1988    -0.3412 C.3     
   9 C9             4.8238     2.5618     0.1613 C.3     
  10 C10            2.6035     3.7487    -0.1199 C.2     
  11 N11            1.3401     3.3951    -0.1595 N.2     
  12 C12            1.2535     2.0521    -0.0368 C.2     
  13 C13            3.1164     5.1312    -0.2293 C.ar    
  14 C14            2.6778     5.9621    -1.2639 C.ar    
  15 C15            3.1600     7.2533    -1.3610 C.ar    
  16 C16            4.0766     7.7242    -0.4357 C.ar    
  17 C17            4.5157     6.9030     0.5934 C.ar    
  18 C18            4.0356     5.6129     0.7035 C.ar    
  19 F19            5.4103     7.3685     1.4924 F       
  20 F20            4.5453     8.9874    -0.5355 F       
  21 F21            1.7844     5.5036    -2.1676 F       
  22 C22            3.7802    -1.2923     1.9879 C.3     
  23 O23           -3.4139     3.1475    -1.0209 O.3     
  24 C24           -2.1783     3.8665    -1.0329 C.3     
  25 C25           -1.2787     3.3430     0.0926 C.3     
  26 N26           -1.1845     1.8798    -0.0311 N.am    
  27 C27           -2.4350     1.1144    -0.1576 C.3     
  28 C28           -3.2782     1.7465    -1.2709 C.3     
  29 C29           -4.6625     1.0954    -1.2957 C.3     
  30 C30           -1.4819     3.6634    -2.3800 C.3     
  31 H31            2.0550    -0.4879     0.4434 H       
  32 H32            3.3743    -0.2203    -0.7231 H       
  33 H33            5.9096     0.5462     1.6137 H       
  34 H34            5.6652    -0.7675     0.4435 H       
  35 H35            6.3268     1.2921    -0.7168 H       
  36 H36            4.6561     0.8568    -1.1452 H       
  37 H37            5.2754     3.3524    -0.4378 H       
  38 H38            5.1083     2.6870     1.2061 H       
  39 H39            2.8219     7.8963    -2.1601 H       
  40 H40            4.3747     4.9762     1.5073 H       
  41 H41            3.9410    -2.1029     1.2772 H       
  42 H42            4.5200    -1.3565     2.7858 H       
  43 H43            2.7797    -1.3747     2.4126 H       
  44 H44           -2.3732     4.9279    -0.8793 H       
  45 H45           -0.2857     3.7837     0.0039 H       
  46 H46           -1.7111     3.6027     1.0589 H       
  47 H47           -2.2076     0.0792    -0.4120 H       
  48 H48           -2.9838     1.1497     0.7835 H       
  49 H49           -2.7861     1.5941    -2.2315 H       
  50 H50           -5.2630     1.5484    -2.0846 H       
  51 H51           -4.5583     0.0273    -1.4864 H       
  52 H52           -5.1525     1.2466    -0.3339 H       
  53 H53           -2.1240     4.0317    -3.1801 H       
  54 H54           -0.5400     4.2119    -2.3884 H       
  55 H55           -1.2856     2.6019    -2.5311 H       
@<TRIPOS>BOND
   1    1    2 2
   2    1   12 1
   3    1   26 am
   4    3    4 1
   5    3    9 1
   6    3   10 1
   7    4    5 1
   8    4   12 2
   9    5    6 1
  10    5   31 1
  11    5   32 1
  12    6    7 1
  13    6   22 1
  14    7    8 1
  15    7   33 1
  16    7   34 1
  17    8    9 1
  18    8   35 1
  19    8   36 1
  20    9   37 1
  21    9   38 1
  22   10   11 2
  23   10   13 1
  24   11   12 1
  25   13   14 ar
  26   13   18 ar
  27   14   15 ar
  28   14   21 1
  29   15   16 ar
  30   15   39 1
  31   16   17 ar
  32   16   20 1
  33   17   18 ar
  34   17   19 1
  35   18   40 1
  36   22   41 1
  37   22   42 1
  38   22   43 1
  39   23   24 1
  40   23   28 1
  41   24   25 1
  42   24   30 1
  43   24   44 1
  44   25   26 1
  45   25   45 1
  46   25   46 1
  47   26   27 1
  48   27   28 1
  49   27   47 1
  50   27   48 1
  51   28   29 1
  52   28   49 1
  53   29   50 1
  54   29   51 1
  55   29   52 1
  56   30   53 1
  57   30   54 1
  58   30   55 1

#	End of record

