#	Name: ASD01813660
#	Creating user name:	WinNT
#	Creation time:	15. 06. 2019 19:30

#	Modifying user name:	WinNT
#	Modification time:	15. 06. 2019 19:30

#	Program:	/corina/corina34_cracker 3.40 0067  02.08.2006

@<TRIPOS>MOLECULE
ASD01813660
  52   55    0    0    0
SMALL
NO_CHARGES


@<TRIPOS>ATOM
   1 C1             0.0980     1.4755     0.3560 C.ar    
   2 C2             0.0799     0.0883     0.3481 C.ar    
   3 C3             1.2501    -0.6306     0.2176 C.ar    
   4 C4             2.4672     0.0383     0.0917 C.ar    
   5 C5             2.4808     1.4430     0.1000 C.ar    
   6 C6             1.2892     2.1560     0.2329 C.ar    
   7 N7             3.6443    -0.6677    -0.0386 N.pl3   
   8 C8             4.8374    -0.0728    -0.1610 C.2     
   9 C9             4.9774     1.3006    -0.1658 C.2     
  10 C10            3.7746     2.1383    -0.0339 C.2     
  11 O11            3.8449     3.3548    -0.0328 O.2     
  12 C12            6.3053     1.9158    -0.3014 C.2     
  13 O13            6.4291     3.2582    -0.3047 O.3     
  14 O14            7.2920     1.2142    -0.4105 O.2     
  15 C15            3.5871    -2.1316    -0.0427 C.3     
  16 C16            3.4445    -2.6248    -1.4595 C.ar    
  17 C17            4.5592    -2.7691    -2.2632 C.ar    
  18 N18            4.4478    -3.2000    -3.5040 N.ar    
  19 C19            3.2698    -3.5106    -4.0290 C.ar    
  20 C20            2.1041    -3.3887    -3.2748 C.ar    
  21 C21            2.1926    -2.9438    -1.9678 C.ar    
  22 F22            1.2170    -1.9812     0.2121 F       
  23 C23            3.1926    -3.9911    -5.4301 C.2     
  24 C24            4.2439    -4.1593    -6.2848 C.2     
  25 N25            3.7501    -4.6093    -7.4546 N.pl3   
  26 N26            2.3605    -4.7247    -7.3285 N.2     
  27 C27            2.0214    -4.3629    -6.1199 C.2     
  28 C28            4.5325    -4.9232    -8.6528 C.3     
  29 C29            4.2379    -6.3588    -9.0925 C.3     
  30 C30            4.9574    -6.6458   -10.4119 C.3     
  31 C31            4.7316    -7.3321    -8.0202 C.3     
  32 H32           -0.8269     2.0244     0.4545 H       
  33 H33           -0.8601    -0.4344     0.4457 H       
  34 H34            1.3006     3.2359     0.2389 H       
  35 H35            5.7198    -0.6878    -0.2588 H       
  36 H36            7.3226     3.6164    -0.3964 H       
  37 H37            4.5033    -2.5323     0.3911 H       
  38 H38            2.7314    -2.4634     0.5453 H       
  39 H39            5.5349    -2.5253    -1.8695 H       
  40 H40            1.1457    -3.6419    -3.7033 H       
  41 H41            1.3067    -2.8397    -1.3590 H       
  42 H42            5.2831    -3.9663    -6.0633 H       
  43 H43            1.0178    -4.3446    -5.7214 H       
  44 H44            4.2622    -4.2352    -9.4538 H       
  45 H45            5.5946    -4.8222    -8.4299 H       
  46 H46            3.1638    -6.4836    -9.2298 H       
  47 H47            6.0315    -6.5210   -10.2747 H       
  48 H48            4.7476    -7.6685   -10.7252 H       
  49 H49            4.6057    -5.9524   -11.1759 H       
  50 H50            4.2190    -7.1276    -7.0802 H       
  51 H51            4.5217    -8.3548    -8.3335 H       
  52 H52            5.8057    -7.2073    -7.8830 H       
@<TRIPOS>BOND
   1    1    2 ar
   2    1    6 ar
   3    1   32 1
   4    2    3 ar
   5    2   33 1
   6    3    4 ar
   7    3   22 1
   8    4    5 ar
   9    4    7 1
  10    5    6 ar
  11    5   10 1
  12    6   34 1
  13    7    8 1
  14    7   15 1
  15    8    9 2
  16    8   35 1
  17    9   10 1
  18    9   12 1
  19   10   11 2
  20   12   13 1
  21   12   14 2
  22   13   36 1
  23   15   16 1
  24   15   37 1
  25   15   38 1
  26   16   17 ar
  27   16   21 ar
  28   17   18 ar
  29   17   39 1
  30   18   19 ar
  31   19   20 ar
  32   19   23 1
  33   20   21 ar
  34   20   40 1
  35   21   41 1
  36   23   24 2
  37   23   27 1
  38   24   25 1
  39   24   42 1
  40   25   26 1
  41   25   28 1
  42   26   27 2
  43   27   43 1
  44   28   29 1
  45   28   44 1
  46   28   45 1
  47   29   30 1
  48   29   31 1
  49   29   46 1
  50   30   47 1
  51   30   48 1
  52   30   49 1
  53   31   50 1
  54   31   51 1
  55   31   52 1

#	End of record

