#	Name: ASD01914310
#	Creating user name:	WinNT
#	Creation time:	15. 06. 2019 20:03

#	Modifying user name:	WinNT
#	Modification time:	15. 06. 2019 20:03

#	Program:	/corina/corina34_cracker 3.40 0067  02.08.2006

@<TRIPOS>MOLECULE
ASD01914310
  46   49    0    0    0
SMALL
NO_CHARGES


@<TRIPOS>ATOM
   1 C1            -0.0679     1.5450     0.2057 C.2     
   2 C2            -0.0189     0.0513     0.0125 C.3     
   3 N3             1.0752     2.2585     0.2354 N.am    
   4 C4             1.0499     3.7171     0.4228 C.3     
   5 C5             2.0112     4.0784     1.5602 C.3     
   6 N6             3.3362     3.5115     1.2759 N.3     
   7 C7             3.2897     2.0439     1.2319 C.3     
   8 C8             2.3811     1.5984     0.0872 C.3     
   9 C9             4.2716     3.9508     2.1966 C.ar    
  10 N10            5.5260     3.5371     2.0918 N.ar    
  11 C11            6.4445     3.9380     2.9551 C.ar    
  12 C12            6.0809     4.8004     3.9775 C.ar    
  13 C13            4.7602     5.2134     4.0577 C.ar    
  14 N14            3.8926     4.7791     3.1587 N.ar    
  15 C15           -2.2097    -0.6075    -1.0601 C.2     
  16 N16           -3.3442    -1.1323    -0.6530 N.2     
  17 C17           -3.2788    -1.3580     0.6644 C.2     
  18 C18           -2.0654    -0.9635     1.1036 C.2     
  19 N19           -1.3815    -0.4867     0.0171 N.pl3   
  20 C20           -1.8844    -0.2201    -2.4499 C.ar    
  21 C21           -2.6261    -0.7365    -3.5131 C.ar    
  22 C22           -2.3179    -0.3707    -4.8072 C.ar    
  23 C23           -1.2757     0.5056    -5.0520 C.ar    
  24 C24           -0.5364     1.0211    -4.0023 C.ar    
  25 C25           -0.8381     0.6678    -2.7032 C.ar    
  26 Br26          -4.6530    -2.1021     1.7291 Br      
  27 O27           -1.1361     2.1057     0.3295 O.2     
  28 H28            0.4584    -0.1764    -0.9406 H       
  29 H29            0.5531    -0.4013     0.8225 H       
  30 H30            1.3681     4.2099    -0.4959 H       
  31 H31            0.0402     4.0356     0.6817 H       
  32 H32            2.0890     5.1627     1.6401 H       
  33 H33            1.6346     3.6703     2.4981 H       
  34 H34            4.2947     1.6527     1.0737 H       
  35 H35            2.8953     1.6641     2.1745 H       
  36 H36            2.2511     0.5169     0.1244 H       
  37 H37            2.8297     1.8837    -0.8644 H       
  38 H38            7.4653     3.5971     2.8647 H       
  39 H39            6.8107     5.1428     4.6961 H       
  40 H40            4.4443     5.8847     4.8425 H       
  41 H41           -1.7026    -1.0137     2.1196 H       
  42 H42           -3.4395    -1.4212    -3.3233 H       
  43 H43           -2.8912    -0.7697    -5.6309 H       
  44 H44           -1.0380     0.7882    -6.0669 H       
  45 H45            0.2762     1.7045    -4.2000 H       
  46 H46           -0.2630     1.0741    -1.8843 H       
@<TRIPOS>BOND
   1    1    2 1
   2    1    3 am
   3    1   27 2
   4    2   19 1
   5    2   28 1
   6    2   29 1
   7    3    4 1
   8    3    8 1
   9    4    5 1
  10    4   30 1
  11    4   31 1
  12    5    6 1
  13    5   32 1
  14    5   33 1
  15    6    7 1
  16    6    9 1
  17    7    8 1
  18    7   34 1
  19    7   35 1
  20    8   36 1
  21    8   37 1
  22    9   10 ar
  23    9   14 ar
  24   10   11 ar
  25   11   12 ar
  26   11   38 1
  27   12   13 ar
  28   12   39 1
  29   13   14 ar
  30   13   40 1
  31   15   16 2
  32   15   19 1
  33   15   20 1
  34   16   17 1
  35   17   18 2
  36   17   26 1
  37   18   19 1
  38   18   41 1
  39   20   21 ar
  40   20   25 ar
  41   21   22 ar
  42   21   42 1
  43   22   23 ar
  44   22   43 1
  45   23   24 ar
  46   23   44 1
  47   24   25 ar
  48   24   45 1
  49   25   46 1

#	End of record

