#	Name: ASD01815594
#	Creating user name:	WinNT
#	Creation time:	15. 06. 2019 19:33

#	Modifying user name:	WinNT
#	Modification time:	15. 06. 2019 19:33

#	Program:	/corina/corina34_cracker 3.40 0067  02.08.2006

@<TRIPOS>MOLECULE
ASD01815594
  34   36    0    0    0
SMALL
NO_CHARGES


@<TRIPOS>ATOM
   1 C1            -0.2812     1.5823    -0.5403 C.ar    
   2 C2            -0.1819     0.1964    -0.5503 C.ar    
   3 C3            -1.2967    -0.5900    -0.3586 C.ar    
   4 C4            -2.5396     0.0024    -0.1520 C.ar    
   5 C5            -2.6386     1.4042    -0.1416 C.ar    
   6 C6            -1.5021     2.1898    -0.3316 C.ar    
   7 N7            -3.6621    -0.7750     0.0400 N.pl3   
   8 C8            -4.8792    -0.2548     0.2417 C.2     
   9 C9            -5.1012     1.1073     0.2730 C.2     
  10 C10           -3.9615     2.0180     0.0784 C.2     
  11 O11           -4.1049     3.2279     0.0975 O.2     
  12 C12           -6.4529     1.6392     0.4967 C.2     
  13 O13           -7.3870     0.8777     0.6562 O.2     
  14 O14           -6.6569     2.9714     0.5251 O.3     
  15 C15           -3.5168    -2.2326     0.0221 C.3     
  16 C16           -3.6322    -2.7316    -1.3952 C.ar    
  17 C17           -2.4982    -3.1064    -2.0902 C.ar    
  18 C18           -2.6033    -3.5642    -3.3905 C.ar    
  19 C19           -3.8435    -3.6476    -3.9972 C.ar    
  20 C20           -4.9796    -3.2729    -3.3031 C.ar    
  21 C21           -4.8753    -2.8198    -1.9992 C.ar    
  22 F22            0.8228     2.3375    -0.7301 F       
  23 F23           -5.9843    -2.4539    -1.3200 F       
  24 Br24          -3.9857    -4.2734    -5.7759 Br      
  25 H25            0.7793    -0.2692    -0.7104 H       
  26 H26           -1.2065    -1.6661    -0.3689 H       
  27 H27           -1.5786     3.2670    -0.3236 H       
  28 H28           -5.7153    -0.9233     0.3844 H       
  29 H29           -7.5630     3.2737     0.6753 H       
  30 H30           -2.5415    -2.5055     0.4251 H       
  31 H31           -4.3006    -2.6834     0.6309 H       
  32 H32           -1.5293    -3.0414    -1.6176 H       
  33 H33           -1.7164    -3.8566    -3.9330 H       
  34 H34           -5.9480    -3.3372    -3.7768 H       
@<TRIPOS>BOND
   1    1    2 ar
   2    1   22 1
   3    1    6 ar
   4    2    3 ar
   5    2   25 1
   6    3    4 ar
   7    3   26 1
   8    4    5 ar
   9    4    7 1
  10    5    6 ar
  11    5   10 1
  12    6   27 1
  13    7    8 1
  14    7   15 1
  15    8    9 2
  16    8   28 1
  17    9   10 1
  18    9   12 1
  19   10   11 2
  20   12   13 2
  21   12   14 1
  22   14   29 1
  23   15   16 1
  24   15   30 1
  25   15   31 1
  26   16   17 ar
  27   16   21 ar
  28   17   18 ar
  29   17   32 1
  30   18   19 ar
  31   18   33 1
  32   19   20 ar
  33   19   24 1
  34   20   21 ar
  35   20   34 1
  36   21   23 1

#	End of record

