#	Name: ASD03330852
#	Creating user name:	WinNT
#	Creation time:	15. 06. 2019 20:38

#	Modifying user name:	WinNT
#	Modification time:	15. 06. 2019 20:38

#	Program:	/corina/corina34_cracker 3.40 0067  02.08.2006

@<TRIPOS>MOLECULE
ASD03330852
  60   62    0    0    0
SMALL
NO_CHARGES


@<TRIPOS>ATOM
   1 N1             0.0523     0.9439    -0.1382 N.pl3   
   2 C2            -0.0868    -0.3824     0.1255 C.2     
   3 C3             1.0201    -1.3152     0.5425 C.3     
   4 N4             1.8017    -0.6856     1.6182 N.3     
   5 C5             2.8912     0.1281     1.0755 C.3     
   6 C6             2.4853     0.7713    -0.2474 C.3     
   7 C7             1.2965     1.7100    -0.0243 C.3     
   8 C8            -1.1720     1.4170    -0.5110 C.2     
   9 N9            -2.0352     0.4297    -0.4624 N.2     
  10 C10           -1.3978    -0.6949    -0.0700 C.2     
  11 C11           -2.0112    -2.0222     0.1130 C.2     
  12 O12           -1.3290    -2.9632     0.4714 O.2     
  13 N13           -3.3281    -2.1935    -0.1166 N.am    
  14 C14            2.3141    -1.6937     2.5558 C.3     
  15 C15           -5.1731    -3.6181    -0.7915 C.2     
  16 C16           -3.9379    -3.5130     0.0654 C.3     
  17 C17           -4.3194    -3.7002     1.5352 C.3     
  18 C18           -5.3666    -2.6559     1.9273 C.3     
  19 O19           -5.7923    -2.6183    -1.0881 O.2     
  20 N20           -5.5898    -4.8231    -1.2283 N.am    
  21 C21           -6.8484    -4.9387    -1.9690 C.3     
  22 C22           -4.8969    -5.1025     1.7376 C.3     
  23 C23           -3.0762    -3.5294     2.4105 C.3     
  24 C24           -1.4759     2.8104    -0.9037 C.ar    
  25 C25           -2.2390     3.0670    -2.0447 C.ar    
  26 C26           -2.5191     4.3704    -2.4050 C.ar    
  27 C27           -2.0454     5.4197    -1.6382 C.ar    
  28 C28           -1.2890     5.1715    -0.5068 C.ar    
  29 C29           -1.0062     3.8738    -0.1326 C.ar    
  30 Cl30          -2.8335     1.7509    -3.0081 Cl      
  31 H31            0.5919    -2.2506     0.9027 H       
  32 H32            1.6689    -1.5149    -0.3104 H       
  33 H33            3.1447     0.9103     1.7911 H       
  34 H34            3.7640    -0.5044     0.9134 H       
  35 H35            3.3255     1.3392    -0.6471 H       
  36 H36            2.2045    -0.0066    -0.9575 H       
  37 H37            1.3089     2.4988    -0.7765 H       
  38 H38            1.3627     2.1519     0.9699 H       
  39 H39           -3.8722    -1.4430    -0.4024 H       
  40 H40            2.8987    -2.4340     2.0097 H       
  41 H41            2.9458    -1.2094     3.3005 H       
  42 H42            1.4782    -2.1857     3.0531 H       
  43 H43           -3.2264    -4.2854    -0.2265 H       
  44 H44           -6.2523    -2.7776     1.3037 H       
  45 H45           -5.6384    -2.7893     2.9744 H       
  46 H46           -4.9552    -1.6569     1.7831 H       
  47 H47           -5.0563    -5.6139    -1.0522 H       
  48 H48           -7.0177    -5.9816    -2.2372 H       
  49 H49           -7.6703    -4.5858    -1.3461 H       
  50 H50           -6.7937    -4.3348    -2.8748 H       
  51 H51           -4.1302    -5.8461     1.5198 H       
  52 H52           -5.2279    -5.2136     2.7702 H       
  53 H53           -5.7440    -5.2469     1.0670 H       
  54 H54           -2.6648    -2.5304     2.2663 H       
  55 H55           -3.3480    -3.6628     3.4576 H       
  56 H56           -2.3302    -4.2734     2.1312 H       
  57 H57           -3.1089     4.5708    -3.2873 H       
  58 H58           -2.2668     6.4374    -1.9242 H       
  59 H59           -0.9219     5.9955     0.0872 H       
  60 H60           -0.4193     3.6818     0.7534 H       
@<TRIPOS>BOND
   1    1    2 1
   2    1    7 1
   3    1    8 1
   4    2    3 1
   5    2   10 2
   6    3    4 1
   7    3   31 1
   8    3   32 1
   9    4    5 1
  10    4   14 1
  11    5    6 1
  12    5   33 1
  13    5   34 1
  14    6    7 1
  15    6   35 1
  16    6   36 1
  17    7   37 1
  18    7   38 1
  19    8    9 2
  20    8   24 1
  21    9   10 1
  22   10   11 1
  23   11   12 2
  24   11   13 am
  25   13   16 1
  26   13   39 1
  27   14   40 1
  28   14   41 1
  29   14   42 1
  30   15   19 2
  31   15   20 am
  32   15   16 1
  33   16   17 1
  34   16   43 1
  35   17   18 1
  36   17   22 1
  37   17   23 1
  38   18   44 1
  39   18   45 1
  40   18   46 1
  41   20   21 1
  42   20   47 1
  43   21   48 1
  44   21   49 1
  45   21   50 1
  46   22   51 1
  47   22   52 1
  48   22   53 1
  49   23   54 1
  50   23   55 1
  51   23   56 1
  52   24   25 ar
  53   24   29 ar
  54   25   26 ar
  55   25   30 1
  56   26   27 ar
  57   26   57 1
  58   27   28 ar
  59   27   58 1
  60   28   29 ar
  61   28   59 1
  62   29   60 1

#	End of record

