#	Name: ASD01230813
#	Creating user name:	WinNT
#	Creation time:	15. 06. 2019 19:15

#	Modifying user name:	WinNT
#	Modification time:	15. 06. 2019 19:15

#	Program:	/corina/corina34_cracker 3.40 0067  02.08.2006

@<TRIPOS>MOLECULE
ASD01230813
  36   38    0    0    0
SMALL
NO_CHARGES


@<TRIPOS>ATOM
   1 C1            -0.0166     1.3739     0.0096 C.2     
   2 C2             0.0021    -0.0041     0.0020 C.2     
   3 C3            -1.2143    -0.6999     0.0083 C.2     
   4 C4            -2.3848    -0.0389     0.0105 C.2     
   5 N5            -2.4623     1.3310     0.0013 N.pl3   
   6 C6            -1.3175     2.0759     0.0320 C.2     
   7 C7            -3.8100     1.9041    -0.0487 C.3     
   8 C8            -3.8784     3.1897     0.7808 C.3     
   9 S9            -2.6224     4.3260     0.1128 S.o2    
  10 N10           -1.2622     3.3847     0.0820 N.am    
  11 C11            1.2496     2.1412     0.0016 C.ar    
  12 O12           -2.8873     4.6254    -1.2508 O.2     
  13 O13           -2.3217     5.3519     1.0489 O.2     
  14 C14            1.5740     2.9463    -1.0909 C.ar    
  15 C15            2.7553     3.6587    -1.0923 C.ar    
  16 C16            3.6179     3.5758    -0.0135 C.ar    
  17 C17            3.3020     2.7794     1.0726 C.ar    
  18 C18            2.1205     2.0667     1.0887 C.ar    
  19 C19            4.9073     4.3560    -0.0221 C.3     
  20 C20            4.2472     2.6949     2.2433 C.3     
  21 H21            0.9399    -0.5395    -0.0090 H       
  22 H22           -1.2112    -1.7799     0.0110 H       
  23 H23           -3.3018    -0.6095     0.0196 H       
  24 H24           -4.0665     2.1299    -1.0837 H       
  25 H25           -4.5230     1.1816     0.3485 H       
  26 H26           -4.8685     3.6368     0.6920 H       
  27 H27           -3.6616     2.9693     1.8260 H       
  28 H28            0.9019     3.0113    -1.9337 H       
  29 H29            3.0076     4.2822    -1.9373 H       
  30 H30            1.8748     1.4456     1.9374 H       
  31 H31            4.7402     5.3386     0.4190 H       
  32 H32            5.6596     3.8208     0.5572 H       
  33 H33            5.2544     4.4728    -1.0487 H       
  34 H34            3.9970     3.4688     2.9689 H       
  35 H35            4.1582     1.7149     2.7121 H       
  36 H36            5.2701     2.8398     1.8956 H       
@<TRIPOS>BOND
   1    1    2 2
   2    1   11 1
   3    1    6 1
   4    2    3 1
   5    2   21 1
   6    3    4 2
   7    3   22 1
   8    4    5 1
   9    4   23 1
  10    5    6 1
  11    5    7 1
  12    6   10 2
  13    7    8 1
  14    7   24 1
  15    7   25 1
  16    8    9 1
  17    8   26 1
  18    8   27 1
  19    9   10 am
  20    9   12 2
  21    9   13 2
  22   11   14 ar
  23   11   18 ar
  24   14   15 ar
  25   14   28 1
  26   15   16 ar
  27   15   29 1
  28   16   17 ar
  29   16   19 1
  30   17   18 ar
  31   17   20 1
  32   18   30 1
  33   19   31 1
  34   19   32 1
  35   19   33 1
  36   20   34 1
  37   20   35 1
  38   20   36 1

#	End of record

