#	Name: ASD01150980
#	Creating user name:	WinNT
#	Creation time:	15. 06. 2019 19:05

#	Modifying user name:	WinNT
#	Modification time:	15. 06. 2019 19:05

#	Program:	/corina/corina34_cracker 3.40 0067  02.08.2006

@<TRIPOS>MOLECULE
ASD01150980
  49   50    0    0    0
SMALL
NO_CHARGES


@<TRIPOS>ATOM
   1 C1            -0.0154     1.2819     0.0091 C.2     
   2 N2             0.0021    -0.0041     0.0020 N.2     
   3 C3            -1.1910    -0.6077     0.0102 C.2     
   4 C4            -2.2604     0.2526     0.0250 C.2     
   5 S5            -1.6766     1.8598     0.0357 S.3     
   6 C6             1.2069     2.1635     0.0022 C.3     
   7 N7            -3.5949    -0.1204     0.0350 N.am    
   8 C8            -1.3438    -2.0643     0.0030 C.2     
   9 O9            -2.4549    -2.5593     0.0105 O.2     
  10 O10           -0.2524    -2.8569    -0.0119 O.3     
  11 C11           -0.4793    -4.2911    -0.0182 C.3     
  12 C12            0.8657    -5.0201    -0.0352 C.3     
  13 C13            2.0546     1.8697     1.2415 C.3     
  14 C14            2.0301     1.8840    -1.2568 C.3     
  15 C15           -4.5580     0.8223     0.0493 C.2     
  16 C16           -6.0094     0.4167     0.0602 C.3     
  17 O17           -4.2567     1.9971     0.0535 O.2     
  18 C18           -6.2950    -0.4225     1.3072 C.3     
  19 C19           -6.8755     1.6498     0.0753 C.ar    
  20 C20           -7.7345    -0.9383     1.2560 C.3     
  21 C21           -7.7720     1.8775    -0.9520 C.ar    
  22 C22           -8.5665     3.0086    -0.9381 C.ar    
  23 C23           -8.4647     3.9119     0.1033 C.ar    
  24 C24           -7.5688     3.6839     1.1311 C.ar    
  25 C25           -6.7775     2.5505     1.1194 C.ar    
  26 H26            0.9005     3.2095     0.0111 H       
  27 H27           -3.8359    -1.0600     0.0316 H       
  28 H28           -1.0352    -4.5749     0.8754 H       
  29 H29           -1.0520    -4.5644    -0.9045 H       
  30 H30            0.6954    -6.0967    -0.0399 H       
  31 H31            1.4216    -4.7363    -0.9288 H       
  32 H32            1.4383    -4.7468     0.8511 H       
  33 H33            2.9387     2.5073     1.2365 H       
  34 H34            1.4681     2.0688     2.1384 H       
  35 H35            2.3610     0.8237     1.2325 H       
  36 H36            1.4262     2.0933    -2.1398 H       
  37 H37            2.9142     2.5216    -1.2618 H       
  38 H38            2.3365     0.8379    -1.2658 H       
  39 H39           -6.2291    -0.1707    -0.8313 H       
  40 H40           -5.6073    -1.2675     1.3418 H       
  41 H41           -6.1607     0.1920     2.1973 H       
  42 H42           -7.9381    -1.5362     2.1444 H       
  43 H43           -8.4222    -0.0934     1.2213 H       
  44 H44           -7.8689    -1.5529     0.3658 H       
  45 H45           -7.8515     1.1717    -1.7656 H       
  46 H46           -9.2664     3.1868    -1.7411 H       
  47 H47           -9.0849     4.7961     0.1138 H       
  48 H48           -7.4891     4.3898     1.9445 H       
  49 H49           -6.0776     2.3723     1.9224 H       
@<TRIPOS>BOND
   1    1    2 2
   2    1    6 1
   3    1    5 1
   4    2    3 1
   5    3    4 2
   6    3    8 1
   7    4    5 1
   8    4    7 1
   9    6   13 1
  10    6   14 1
  11    6   26 1
  12    7   15 am
  13    7   27 1
  14    8    9 2
  15    8   10 1
  16   10   11 1
  17   11   12 1
  18   11   28 1
  19   11   29 1
  20   12   30 1
  21   12   31 1
  22   12   32 1
  23   13   33 1
  24   13   34 1
  25   13   35 1
  26   14   36 1
  27   14   37 1
  28   14   38 1
  29   15   16 1
  30   15   17 2
  31   16   18 1
  32   16   19 1
  33   16   39 1
  34   18   20 1
  35   18   40 1
  36   18   41 1
  37   19   21 ar
  38   19   25 ar
  39   20   42 1
  40   20   43 1
  41   20   44 1
  42   21   22 ar
  43   21   45 1
  44   22   23 ar
  45   22   46 1
  46   23   24 ar
  47   23   47 1
  48   24   25 ar
  49   24   48 1
  50   25   49 1

#	End of record

