#	Name: ASD00431115
#	Creating user name:	WinNT
#	Creation time:	15. 06. 2019 18:35

#	Modifying user name:	WinNT
#	Modification time:	15. 06. 2019 18:35

#	Program:	/corina/corina34_cracker 3.40 0067  02.08.2006

@<TRIPOS>MOLECULE
ASD00431115
  49   52    0    0    0
SMALL
NO_CHARGES


@<TRIPOS>ATOM
   1 N1            -0.1194     1.2473     0.2991 N.am    
   2 C2            -0.0900    -0.0993     0.3484 C.2     
   3 O3             0.9730    -0.6867     0.2908 O.2     
   4 N4            -1.2389    -0.7947     0.4616 N.am    
   5 C5             1.1294     2.0032     0.1761 C.3     
   6 C6             1.5214     2.1040    -1.2995 C.3     
   7 C7             0.9365     3.3872     0.7402 C.2     
   8 C8             1.8342     4.0490     1.4747 C.2     
   9 C9             1.4417     5.3071     1.8850 C.2     
  10 C10            0.2072     5.6723     1.4777 C.2     
  11 S11           -0.5016     4.3759     0.5235 S.3     
  12 S12            0.2505     8.2729     2.7276 S.3     
  13 C13           -1.1674     9.2002     2.5006 C.2     
  14 N14           -2.0267     8.5430     1.7866 N.2     
  15 C15           -1.6758     7.3397     1.3823 C.2     
  16 C16           -0.4427     6.9587     1.7809 C.2     
  17 O17           -1.3653    10.4452     2.9972 O.3     
  18 C18           -2.4795    11.1189     2.6057 C.ar    
  19 C19           -3.2856    10.6022     1.6017 C.ar    
  20 C20           -4.4173    11.2865     1.2040 C.ar    
  21 C21           -4.7479    12.4909     1.8082 C.ar    
  22 C22           -3.9418    13.0075     2.8123 C.ar    
  23 C23           -2.8134    12.3202     3.2142 C.ar    
  24 O24           -5.8615    13.1650     1.4161 O.3     
  25 C25           -6.5658    12.6752     0.3624 C.ar    
  26 C26           -7.3713    11.5570     0.5243 C.ar    
  27 C27           -8.0862    11.0610    -0.5486 C.ar    
  28 C28           -7.9996    11.6778    -1.7831 C.ar    
  29 C29           -7.1977    12.7922    -1.9472 C.ar    
  30 C30           -6.4851    13.2956    -0.8762 C.ar    
  31 H31           -0.9678     1.7157     0.3410 H       
  32 H32           -2.0870    -0.3262     0.5075 H       
  33 H33           -1.2177    -1.7639     0.4971 H       
  34 H34            1.9189     1.4928     0.7277 H       
  35 H35            2.4505     2.6664    -1.3910 H       
  36 H36            1.6609     1.1029    -1.7075 H       
  37 H37            0.7319     2.6143    -1.8511 H       
  38 H38            2.7966     3.6303     1.7293 H       
  39 H39            2.0715     5.9479     2.4842 H       
  40 H40           -2.3188     6.7116     0.7835 H       
  41 H41           -3.0279     9.6650     1.1309 H       
  42 H42           -5.0448    10.8843     0.4225 H       
  43 H43           -4.1989    13.9452     3.2824 H       
  44 H44           -2.1885    12.7200     3.9991 H       
  45 H45           -7.4390    11.0747     1.4883 H       
  46 H46           -8.7131    10.1905    -0.4232 H       
  47 H47           -8.5591    11.2882    -2.6207 H       
  48 H48           -7.1318    13.2721    -2.9125 H       
  49 H49           -5.8626    14.1689    -1.0037 H       
@<TRIPOS>BOND
   1    1    2 am
   2    1    5 1
   3    1   31 1
   4    2    3 2
   5    2    4 am
   6    4   32 1
   7    4   33 1
   8    5    6 1
   9    5    7 1
  10    5   34 1
  11    6   35 1
  12    6   36 1
  13    6   37 1
  14    7    8 2
  15    7   11 1
  16    8    9 1
  17    8   38 1
  18    9   10 2
  19    9   39 1
  20   10   11 1
  21   10   16 1
  22   12   13 1
  23   12   16 1
  24   13   14 2
  25   13   17 1
  26   14   15 1
  27   15   16 2
  28   15   40 1
  29   17   18 1
  30   18   19 ar
  31   18   23 ar
  32   19   20 ar
  33   19   41 1
  34   20   21 ar
  35   20   42 1
  36   21   22 ar
  37   21   24 1
  38   22   23 ar
  39   22   43 1
  40   23   44 1
  41   24   25 1
  42   25   26 ar
  43   25   30 ar
  44   26   27 ar
  45   26   45 1
  46   27   28 ar
  47   27   46 1
  48   28   29 ar
  49   28   47 1
  50   29   30 ar
  51   29   48 1
  52   30   49 1

#	End of record

