#	Name: ASD01885571
#	Creating user name:	WinNT
#	Creation time:	15. 06. 2019 19:49

#	Modifying user name:	WinNT
#	Modification time:	15. 06. 2019 19:49

#	Program:	/corina/corina34_cracker 3.40 0067  02.08.2006

@<TRIPOS>MOLECULE
ASD01885571
  50   53    0    0    0
SMALL
NO_CHARGES


@<TRIPOS>ATOM
   1 C1            -0.0598     1.4607     0.0254 C.ar    
   2 C2            -0.0182     0.0746    -0.1226 C.ar    
   3 C3            -1.1893    -0.6541    -0.1194 C.ar    
   4 C4            -2.4094    -0.0100     0.0309 C.ar    
   5 C5            -2.4557     1.3724     0.1785 C.ar    
   6 C6            -1.2869     2.1063     0.1818 C.ar    
   7 C7             1.1967     2.2454     0.0229 C.2     
   8 O8            -3.5611    -0.7312     0.0336 O.3     
   9 C9             2.1490     2.0742     1.0571 C.2     
  10 C10            3.2898     2.7885     1.0532 C.2     
  11 N11            3.5500     3.6869     0.0581 N.pl3   
  12 C12            2.6530     3.8830    -0.9639 C.2     
  13 C13            1.4541     3.1486    -0.9927 C.2     
  14 C14            4.5923     4.5252    -0.1964 C.2     
  15 N15            4.3183     5.1706    -1.3007 N.2     
  16 N16            3.1762     4.8001    -1.7631 N.2     
  17 C17            5.8352     4.6810     0.6414 C.3     
  18 O18            6.8320     3.7618     0.1904 O.3     
  19 Cl19           0.3082     3.3822    -2.2757 Cl      
  20 F20           -3.6451     1.9964     0.3242 F       
  21 C21           -4.2272    -0.8739    -1.1422 C.ar    
  22 C22           -3.7764    -0.2314    -2.2911 C.ar    
  23 C23           -4.4891    -0.4072    -3.4664 C.ar    
  24 C24           -5.6153    -1.2084    -3.4594 C.ar    
  25 N25           -6.0163    -1.8032    -2.3527 N.ar    
  26 C26           -5.3636    -1.6670    -1.2157 C.ar    
  27 C27           -6.3959    -1.4046    -4.7334 C.3     
  28 C28           -5.8646    -2.3686     0.0204 C.3     
  29 C29            8.0575     3.8280     0.9225 C.3     
  30 C30            9.0456     2.8062     0.3563 C.3     
  31 H31            0.9305    -0.4280    -0.2401 H       
  32 H32           -1.1568    -1.7274    -0.2345 H       
  33 H33           -1.3225     3.1796     0.2967 H       
  34 H34            1.9590     1.3682     1.8519 H       
  35 H35            4.0084     2.6497     1.8474 H       
  36 H36            6.2112     5.6997     0.5476 H       
  37 H37            5.5977     4.4760     1.6853 H       
  38 H38           -2.8930     0.3893    -2.2673 H       
  39 H39           -4.1685     0.0765    -4.3772 H       
  40 H40           -6.0043    -2.2689    -5.2700 H       
  41 H41           -7.4462    -1.5708    -4.4941 H       
  42 H42           -6.3017    -0.5161    -5.3577 H       
  43 H43           -5.4103    -3.3572     0.0864 H       
  44 H44           -5.5972    -1.7863     0.9022 H       
  45 H45           -6.9485    -2.4697    -0.0333 H       
  46 H46            8.4797     4.8290     0.8345 H       
  47 H47            7.8661     3.6053     1.9722 H       
  48 H48            9.9803     2.8566     0.9147 H       
  49 H49            8.6234     1.8051     0.4443 H       
  50 H50            9.2369     3.0288    -0.6934 H       
@<TRIPOS>BOND
   1    1    2 ar
   2    1    7 1
   3    1    6 ar
   4    2    3 ar
   5    2   31 1
   6    3    4 ar
   7    3   32 1
   8    4    5 ar
   9    4    8 1
  10    5    6 ar
  11    5   20 1
  12    6   33 1
  13    7    9 1
  14    7   13 2
  15    8   21 1
  16    9   10 2
  17    9   34 1
  18   10   11 1
  19   10   35 1
  20   11   12 1
  21   11   14 1
  22   12   13 1
  23   12   16 2
  24   13   19 1
  25   14   15 2
  26   14   17 1
  27   15   16 1
  28   17   18 1
  29   17   36 1
  30   17   37 1
  31   18   29 1
  32   21   22 ar
  33   21   26 ar
  34   22   23 ar
  35   22   38 1
  36   23   24 ar
  37   23   39 1
  38   24   25 ar
  39   24   27 1
  40   25   26 ar
  41   26   28 1
  42   27   40 1
  43   27   41 1
  44   27   42 1
  45   28   43 1
  46   28   44 1
  47   28   45 1
  48   29   30 1
  49   29   46 1
  50   29   47 1
  51   30   48 1
  52   30   49 1
  53   30   50 1

#	End of record

