#	Name: ASD09740458
#	Creating user name:	WinNT
#	Creation time:	15. 06. 2019 21:23

#	Modifying user name:	WinNT
#	Modification time:	15. 06. 2019 21:23

#	Program:	/corina/corina34_cracker 3.40 0067  02.08.2006

@<TRIPOS>MOLECULE
ASD09740458
  72   76    0    0    0
SMALL
NO_CHARGES


@<TRIPOS>ATOM
   1 N1            -1.0269     0.7645    -0.2391 N.2     
   2 C2            -0.9163    -0.5107     0.0382 C.2     
   3 C3            -0.0402     1.5391     0.1156 C.2     
   4 S4             1.2039     0.5711     0.9018 S.3     
   5 C5             0.2228    -0.8743     0.6669 C.2     
   6 C6             0.0248     2.9983    -0.1074 C.ar    
   7 C7            -1.0266     3.6529    -0.7437 C.ar    
   8 C8             1.1398     3.7229     0.3257 C.ar    
   9 C9             1.2055     5.0838     0.1207 C.ar    
  10 C10            0.1657     5.7458    -0.5171 C.ar    
  11 C11           -0.9598     5.0300    -0.9514 C.ar    
  12 O12            0.2354     7.0859    -0.7158 O.3     
  13 C13            1.4574     7.7326    -0.3545 C.3     
  14 C14            1.6153     9.0171    -1.1705 C.3     
  15 C15            1.4315     8.0755     1.1364 C.3     
  16 C16           -2.0342     5.7104    -1.6098 C.1     
  17 N17           -2.8865     6.2501    -2.1320 N.1     
  18 C18            0.5833    -2.2450     1.0856 C.ar    
  19 C19            1.8341    -2.7731     0.7510 C.ar    
  20 C20            2.1645    -4.0530     1.1452 C.ar    
  21 C21            1.2565    -4.8098     1.8701 C.ar    
  22 C22            0.0185    -4.2928     2.2024 C.ar    
  23 C23           -0.3215    -3.0115     1.8199 C.ar    
  24 C24            2.9830    -2.1607    -0.0207 C.3     
  25 C25            4.2086    -3.0355     0.3187 C.3     
  26 C26            3.5599    -4.3922     0.6658 C.3     
  27 N27            3.4955    -5.2442    -0.5242 N.am    
  28 S28            4.3434    -6.6659    -0.5717 S.o2    
  29 O29            4.0242    -7.2221    -1.8397 O.2     
  30 O30            5.6757    -6.2901    -0.2509 O.2     
  31 C31            3.6256    -7.6657     0.7609 C.3     
  32 C32            4.2612    -9.0574     0.7533 C.3     
  33 N33            3.6799    -9.8671     1.8324 N.3     
  34 C34            4.0860   -11.2732     1.7125 C.3     
  35 C35            3.5845   -12.0558     2.9283 C.3     
  36 C36            2.0588   -11.9503     3.0033 C.3     
  37 C37            1.6602   -10.4739     3.0787 C.3     
  38 C38            2.2174    -9.7371     1.8585 C.3     
  39 H39           -1.6851    -1.2245    -0.2186 H       
  40 H40           -1.8905     3.0960    -1.0753 H       
  41 H41            1.9522     3.2139     0.8229 H       
  42 H42            2.0692     5.6375     0.4579 H       
  43 H43            2.2955     7.0665    -0.5596 H       
  44 H44            0.7773     9.6833    -0.9654 H       
  45 H45            2.5474     9.5104    -0.8949 H       
  46 H46            1.6338     8.7729    -2.2327 H       
  47 H47            0.5935     8.7416     1.3415 H       
  48 H48            1.3190     7.1604     1.7178 H       
  49 H49            2.3636     8.5688     1.4120 H       
  50 H50            1.5186    -5.8115     2.1772 H       
  51 H51           -0.6817    -4.8907     2.7669 H       
  52 H52           -1.2888    -2.6072     2.0794 H       
  53 H53            2.7797    -2.1933    -1.0911 H       
  54 H54            3.1505    -1.1332     0.3022 H       
  55 H55            4.8679    -3.1305    -0.5442 H       
  56 H56            4.7469    -2.6324     1.1765 H       
  57 H57            4.1215    -4.8885     1.4573 H       
  58 H58            2.9561    -4.9756    -1.2844 H       
  59 H59            3.8169    -7.1841     1.7198 H       
  60 H60            2.5502    -7.7565     0.6081 H       
  61 H61            4.0699    -9.5390    -0.2057 H       
  62 H62            5.3366    -8.9666     0.9061 H       
  63 H63            3.6579   -11.6987     0.8049 H       
  64 H64            5.1732   -11.3344     1.6644 H       
  65 H65            3.8727   -13.1025     2.8315 H       
  66 H66            4.0231   -11.6395     3.8352 H       
  67 H67            1.6184   -12.4016     2.1142 H       
  68 H68            1.7010   -12.4701     3.8921 H       
  69 H69            0.5734   -10.3904     3.0892 H       
  70 H70            2.0684   -10.0327     3.9879 H       
  71 H71            1.9475    -8.6827     1.9164 H       
  72 H72            1.7981   -10.1699     0.9502 H       
@<TRIPOS>BOND
   1    1    2 1
   2    1    3 2
   3    2    5 2
   4    2   39 1
   5    3    4 1
   6    3    6 1
   7    4    5 1
   8    5   18 1
   9    6    7 ar
  10    6    8 ar
  11    7   11 ar
  12    7   40 1
  13    8    9 ar
  14    8   41 1
  15    9   10 ar
  16    9   42 1
  17   10   11 ar
  18   10   12 1
  19   11   16 1
  20   12   13 1
  21   13   14 1
  22   13   15 1
  23   13   43 1
  24   14   44 1
  25   14   45 1
  26   14   46 1
  27   15   47 1
  28   15   48 1
  29   15   49 1
  30   16   17 3
  31   18   19 ar
  32   18   23 ar
  33   19   20 ar
  34   19   24 1
  35   20   21 ar
  36   20   26 1
  37   21   22 ar
  38   21   50 1
  39   22   23 ar
  40   22   51 1
  41   23   52 1
  42   24   25 1
  43   24   53 1
  44   24   54 1
  45   25   26 1
  46   25   55 1
  47   25   56 1
  48   26   27 1
  49   26   57 1
  50   27   28 am
  51   27   58 1
  52   28   29 2
  53   28   30 2
  54   28   31 1
  55   31   32 1
  56   31   59 1
  57   31   60 1
  58   32   33 1
  59   32   61 1
  60   32   62 1
  61   33   34 1
  62   33   38 1
  63   34   35 1
  64   34   63 1
  65   34   64 1
  66   35   36 1
  67   35   65 1
  68   35   66 1
  69   36   37 1
  70   36   67 1
  71   36   68 1
  72   37   38 1
  73   37   69 1
  74   37   70 1
  75   38   71 1
  76   38   72 1

#	End of record

