#	Name: ASD09610003
#	Creating user name:	WinNT
#	Creation time:	15. 06. 2019 21:22

#	Modifying user name:	WinNT
#	Modification time:	15. 06. 2019 21:22

#	Program:	/corina/corina34_cracker 3.40 0067  02.08.2006

@<TRIPOS>MOLECULE
ASD09610003
  31   32    0    0    0
SMALL
NO_CHARGES


@<TRIPOS>ATOM
   1 N1            -0.0217     1.2710     0.0134 N.pl3   
   2 N2             0.0085    -0.0129    -0.0230 N.2     
   3 C3             1.2576    -0.4371    -0.0334 C.2     
   4 C4             2.0869     0.7098     0.0002 C.2     
   5 C5             1.2428     1.7674     0.0291 C.2     
   6 C6             1.7058    -1.8420    -0.0727 C.2     
   7 O7             2.8929    -2.1010    -0.0781 O.2     
   8 O8             0.7988    -2.8380    -0.1026 O.3     
   9 C9             1.6326     3.2225     0.0708 C.3     
  10 C10           -1.1890     2.0465     0.0286 C.ar    
  11 C11           -2.2047     1.7939    -0.8860 C.ar    
  12 C12           -3.3545     2.5601    -0.8681 C.ar    
  13 C13           -3.4945     3.5781     0.0591 C.ar    
  14 C14           -2.4842     3.8314     0.9701 C.ar    
  15 C15           -1.3352     3.0646     0.9607 C.ar    
  16 Cl16          -4.9399     4.5393     0.0788 Cl      
  17 Cl17          -2.0287     0.5178    -2.0497 Cl      
  18 C18            1.3118    -4.1959    -0.1404 C.3     
  19 C19            0.1425    -5.1821    -0.1705 C.3     
  20 H20            3.1666     0.7354     0.0026 H       
  21 H21            1.6357     3.5683     1.1045 H       
  22 H22            2.6280     3.3444    -0.3561 H       
  23 H23            0.9158     3.8073    -0.5057 H       
  24 H24           -4.1444     2.3646    -1.5783 H       
  25 H25           -2.5959     4.6269     1.6920 H       
  26 H26           -0.5492     3.2602     1.6751 H       
  27 H27            1.9224    -4.3288    -1.0335 H       
  28 H28            1.9194    -4.3795     0.7457 H       
  29 H29           -0.4680    -5.0492     0.7226 H       
  30 H30           -0.4650    -4.9985    -1.0566 H       
  31 H31            0.5276    -6.2015    -0.1989 H       
@<TRIPOS>BOND
   1    1    2 1
   2    1    5 1
   3    1   10 1
   4    2    3 2
   5    3    4 1
   6    3    6 1
   7    4    5 2
   8    4   20 1
   9    5    9 1
  10    6    7 2
  11    6    8 1
  12    8   18 1
  13    9   21 1
  14    9   22 1
  15    9   23 1
  16   10   11 ar
  17   10   15 ar
  18   11   12 ar
  19   11   17 1
  20   12   13 ar
  21   12   24 1
  22   13   14 ar
  23   13   16 1
  24   14   15 ar
  25   14   25 1
  26   15   26 1
  27   18   19 1
  28   18   27 1
  29   18   28 1
  30   19   29 1
  31   19   30 1
  32   19   31 1

#	End of record

