#	Name: ASD01812541
#	Creating user name:	WinNT
#	Creation time:	15. 06. 2019 19:28

#	Modifying user name:	WinNT
#	Modification time:	15. 06. 2019 19:28

#	Program:	/corina/corina34_cracker 3.40 0067  02.08.2006

@<TRIPOS>MOLECULE
ASD01812541
  62   67    0    0    0
SMALL
NO_CHARGES


@<TRIPOS>ATOM
   1 C1            -0.0178     1.4608     0.0101 C.3     
   2 N2             0.0021    -0.0041     0.0020 N.pl3   
   3 C3             0.0077    -0.7875    -1.0939 C.2     
   4 C4             0.0273    -2.0862    -0.6731 C.2     
   5 C5             0.0335    -2.0755     0.7360 C.2     
   6 N6             0.0245    -0.8305     1.1319 N.2     
   7 C7             0.0393    -3.2890    -1.5409 C.ar    
   8 C8             0.0533    -4.5572    -0.9640 C.ar    
   9 C9             0.0639    -5.6700    -1.7865 C.ar    
  10 C10            0.0601    -5.4781    -3.1611 C.ar    
  11 C11            0.0708    -6.6613    -4.0943 C.3     
  12 C12           -1.3464    -7.0701    -4.4034 C.ar    
  13 C13           -1.9297    -8.0505    -3.6730 C.ar    
  14 C14           -3.2481    -8.4619    -3.9285 C.ar    
  15 C15           -3.8876    -9.5224    -3.1427 C.2     
  16 O16           -3.2834   -10.0761    -2.2412 O.2     
  17 N17           -5.1568    -9.8737    -3.4354 N.am    
  18 C18           -5.8516    -9.2675    -4.4391 C.2     
  19 C19           -5.3169    -8.2889    -5.1931 C.2     
  20 C20           -3.9933    -7.8566    -4.9575 C.ar    
  21 C21           -3.3716    -6.7980    -5.7503 C.ar    
  22 N22           -4.0282    -6.1900    -6.7350 N.ar    
  23 C23           -3.4673    -5.2389    -7.4453 C.ar    
  24 C24           -2.1621    -4.8222    -7.2028 C.ar    
  25 C25           -1.4337    -5.4076    -6.2045 C.ar    
  26 C26           -2.0422    -6.4212    -5.4434 C.ar    
  27 C27           -5.8035   -10.9323    -2.6561 C.3     
  28 H28           -5.1099   -11.3035    -1.9017 H       
  29 C29           -7.0507   -10.3711    -1.9701 C.3     
  30 C30           -7.7261   -11.4767    -1.1563 C.3     
  31 C31           -8.1280   -12.6224    -2.0873 C.3     
  32 C32           -6.8808   -13.1835    -2.7733 C.3     
  33 C33           -6.2054   -12.0779    -3.5872 C.3     
  34 H34           -6.8991   -11.7067    -4.3416 H       
  35 O35           -5.0406   -12.6020    -4.2278 O.3     
  36 C36            0.0459    -4.1915    -3.6660 C.ar    
  37 N37            0.0309    -3.1486    -2.8603 N.ar    
  38 H38            1.0048     1.8381     0.0023 H       
  39 H39           -0.5450     1.8219    -0.8730 H       
  40 H40           -0.5280     1.8123     0.9069 H       
  41 H41           -0.0015    -0.4495    -2.1196 H       
  42 H42            0.0482    -2.9447     1.3768 H       
  43 H43            0.0563    -4.6702     0.1101 H       
  44 H44            0.0753    -6.6656    -1.3682 H       
  45 H45            0.5806    -6.3903    -5.0188 H       
  46 H46            0.5937    -7.4925    -3.6212 H       
  47 H47           -1.3706    -8.5247    -2.8799 H       
  48 H48           -6.8654    -9.5833    -4.6364 H       
  49 H49           -5.9008    -7.8341    -5.9796 H       
  50 H50           -4.0322    -4.7691    -8.2369 H       
  51 H51           -1.7247    -4.0377    -7.8025 H       
  52 H52           -0.4192    -5.0965    -6.0031 H       
  53 H53           -6.7644    -9.5550    -1.3069 H       
  54 H54           -7.7444   -10.0000    -2.7246 H       
  55 H55           -7.0325   -11.8479    -0.4018 H       
  56 H56           -8.6147   -11.0770    -0.6676 H       
  57 H57           -8.6092   -13.4100    -1.5075 H       
  58 H58           -8.8217   -12.2512    -2.8417 H       
  59 H59           -6.1872   -13.5547    -2.0188 H       
  60 H60           -7.1671   -13.9997    -3.4366 H       
  61 H61           -5.2207   -13.3333    -4.8343 H       
  62 H62            0.0432    -4.0388    -4.7351 H       
@<TRIPOS>BOND
   1    1    2 1
   2    1   38 1
   3    1   39 1
   4    1   40 1
   5    2    6 1
   6    2    3 1
   7    3    4 2
   8    3   41 1
   9    4    5 1
  10    4    7 1
  11    5    6 2
  12    5   42 1
  13    7   37 ar
  14    7    8 ar
  15    8    9 ar
  16    8   43 1
  17    9   10 ar
  18    9   44 1
  19   10   11 1
  20   10   36 ar
  21   11   12 1
  22   11   45 1
  23   11   46 1
  24   12   26 ar
  25   12   13 ar
  26   13   14 ar
  27   13   47 1
  28   14   20 ar
  29   14   15 1
  30   15   16 2
  31   15   17 am
  32   17   18 1
  33   17   27 1
  34   18   19 2
  35   18   48 1
  36   19   20 1
  37   19   49 1
  38   20   21 ar
  39   21   26 ar
  40   21   22 ar
  41   22   23 ar
  42   23   24 ar
  43   23   50 1
  44   24   25 ar
  45   24   51 1
  46   25   26 ar
  47   25   52 1
  48   27   28 1
  49   27   33 1
  50   27   29 1
  51   29   30 1
  52   29   53 1
  53   29   54 1
  54   30   31 1
  55   30   55 1
  56   30   56 1
  57   31   32 1
  58   31   57 1
  59   31   58 1
  60   32   33 1
  61   32   59 1
  62   32   60 1
  63   33   34 1
  64   33   35 1
  65   35   61 1
  66   36   37 ar
  67   36   62 1

#	End of record

