#	Name: ASD06660095
#	Creating user name:	WinNT
#	Creation time:	15. 06. 2019 21:08

#	Modifying user name:	WinNT
#	Modification time:	15. 06. 2019 21:08

#	Program:	/corina/corina34_cracker 3.40 0067  02.08.2006

@<TRIPOS>MOLECULE
ASD06660095
  77   81    0    0    0
SMALL
NO_CHARGES


@<TRIPOS>ATOM
   1 C1             0.2977     1.9435     1.0371 C.2     
   2 C2             0.0478     0.5504     0.5194 C.3     
   3 C3            -1.0916     0.5824    -0.5013 C.3     
   4 O4             1.3800     2.4589     0.8863 O.2     
   5 O5            -0.6839     2.6137     1.6609 O.3     
   6 C6            -1.4297    -0.8249    -0.9210 C.ar    
   7 C7            -2.3569    -1.5556    -0.2010 C.ar    
   8 C8            -2.6691    -2.8456    -0.5830 C.ar    
   9 C9            -2.0503    -3.4089    -1.6918 C.ar    
  10 C10           -1.1193    -2.6720    -2.4129 C.ar    
  11 C11           -0.8161    -1.3806    -2.0287 C.ar    
  12 N12           -2.3633    -4.7134    -2.0806 N.3     
  13 C13           -1.5977    -5.1058    -3.2707 C.3     
  14 C14           -2.0699    -6.4794    -3.7526 C.3     
  15 C15           -1.8694    -7.5044    -2.6329 C.3     
  16 C16           -2.6378    -7.0475    -1.3897 C.3     
  17 C17           -2.1491    -5.6574    -0.9763 C.3     
  18 N18           -1.5560    -9.7241    -3.6058 N.ar    
  19 C19           -2.3879    -8.8468    -3.0802 C.ar    
  20 C20           -3.7284    -9.1434    -2.9342 C.ar    
  21 C21           -4.1973   -10.3827    -3.3461 C.ar    
  22 C22           -3.2988   -11.2843    -3.8940 C.ar    
  23 C23           -3.7940   -12.6333    -4.3397 C.3     
  24 C24           -2.8174   -13.2576    -5.3368 C.3     
  25 C25           -1.4041   -13.2077    -4.7418 C.3     
  26 N26           -1.0364   -11.7960    -4.5703 N.pl3   
  27 C27           -1.9654   -10.9187    -4.0143 C.ar    
  28 C28            2.2848    -0.4086     0.6332 C.2     
  29 C29            3.5453    -0.8363    -0.0089 C.ar    
  30 C30            3.7733    -2.1881    -0.2742 C.ar    
  31 C31            4.9510    -2.5810    -0.8739 C.ar    
  32 C32            5.9073    -1.6376    -1.2128 C.ar    
  33 C33            5.6868    -0.2955    -0.9522 C.ar    
  34 C34            4.5102     0.1102    -0.3579 C.ar    
  35 O35            2.1694    -0.4635     1.8421 O.2     
  36 N36            1.2632     0.0423    -0.1214 N.am    
  37 C37            4.2691     1.5718    -0.0807 C.3     
  38 C38            2.7345    -3.2156     0.0948 C.3     
  39 C39            1.7165    -3.3420    -1.0404 C.3     
  40 Cl40           7.3882    -2.1401    -1.9666 Cl      
  41 H41           -0.2256    -0.1018     1.3488 H       
  42 H42           -1.9688     1.0482    -0.0521 H       
  43 H43           -0.7817     1.1574    -1.3739 H       
  44 H44           -0.4762     3.5042     1.9756 H       
  45 H45           -2.8373    -1.1172     0.6612 H       
  46 H46           -3.3931    -3.4159    -0.0200 H       
  47 H47           -0.6365    -3.1070    -3.2755 H       
  48 H48           -0.0958    -0.8054    -2.5917 H       
  49 H49           -1.7524    -4.3709    -4.0607 H       
  50 H50           -0.5377    -5.1531    -3.0213 H       
  51 H51           -3.1266    -6.4295    -4.0153 H       
  52 H52           -1.4908    -6.7773    -4.6266 H       
  53 H53           -0.8082    -7.5830    -2.3967 H       
  54 H54           -3.7034    -7.0064    -1.6152 H       
  55 H55           -2.4643    -7.7512    -0.5756 H       
  56 H56           -1.0865    -5.7020    -0.7377 H       
  57 H57           -2.7042    -5.3230    -0.0999 H       
  58 H58           -4.4043    -8.4193    -2.5039 H       
  59 H59           -5.2411   -10.6395    -3.2416 H       
  60 H60           -3.8903   -13.2865    -3.4724 H       
  61 H61           -4.7695   -12.5210    -4.8128 H       
  62 H62           -3.0987   -14.2939    -5.5238 H       
  63 H63           -2.8405   -12.6964    -6.2710 H       
  64 H64           -1.3928   -13.7118    -3.7755 H       
  65 H65           -0.7012   -13.6921    -5.4196 H       
  66 H66           -0.1603   -11.4792    -4.8403 H       
  67 H67            5.1285    -3.6262    -1.0795 H       
  68 H68            6.4361     0.4354    -1.2183 H       
  69 H69            1.3328     0.0304    -1.0889 H       
  70 H70            4.6470     1.8207     0.9109 H       
  71 H71            4.7862     2.1735    -0.8282 H       
  72 H72            3.1998     1.7783    -0.1244 H       
  73 H73            3.2180    -4.1787     0.2581 H       
  74 H74            2.2248    -2.9056     1.0070 H       
  75 H75            0.9118    -4.0103    -0.7341 H       
  76 H76            1.3049    -2.3592    -1.2704 H       
  77 H77            2.2076    -3.7464    -1.9255 H       
@<TRIPOS>BOND
   1    1    2 1
   2    1    4 2
   3    1    5 1
   4    2    3 1
   5    2   36 1
   6    2   41 1
   7    3    6 1
   8    3   42 1
   9    3   43 1
  10    5   44 1
  11    6    7 ar
  12    6   11 ar
  13    7    8 ar
  14    7   45 1
  15    8    9 ar
  16    8   46 1
  17    9   10 ar
  18    9   12 1
  19   10   11 ar
  20   10   47 1
  21   11   48 1
  22   12   13 1
  23   12   17 1
  24   13   14 1
  25   13   49 1
  26   13   50 1
  27   14   15 1
  28   14   51 1
  29   14   52 1
  30   15   16 1
  31   15   19 1
  32   15   53 1
  33   16   17 1
  34   16   54 1
  35   16   55 1
  36   17   56 1
  37   17   57 1
  38   18   19 ar
  39   18   27 ar
  40   19   20 ar
  41   20   21 ar
  42   20   58 1
  43   21   22 ar
  44   21   59 1
  45   22   23 1
  46   22   27 ar
  47   23   24 1
  48   23   60 1
  49   23   61 1
  50   24   25 1
  51   24   62 1
  52   24   63 1
  53   25   26 1
  54   25   64 1
  55   25   65 1
  56   26   27 1
  57   26   66 1
  58   28   29 1
  59   28   35 2
  60   28   36 am
  61   29   30 ar
  62   29   34 ar
  63   30   31 ar
  64   30   38 1
  65   31   32 ar
  66   31   67 1
  67   32   33 ar
  68   32   40 1
  69   33   34 ar
  70   33   68 1
  71   34   37 1
  72   36   69 1
  73   37   70 1
  74   37   71 1
  75   37   72 1
  76   38   39 1
  77   38   73 1
  78   38   74 1
  79   39   75 1
  80   39   76 1
  81   39   77 1

#	End of record

