#	Name: ASD01881266
#	Creating user name:	WinNT
#	Creation time:	15. 06. 2019 19:42

#	Modifying user name:	WinNT
#	Modification time:	15. 06. 2019 19:42

#	Program:	/corina/corina34_cracker 3.40 0067  02.08.2006

@<TRIPOS>MOLECULE
ASD01881266
  55   58    0    0    0
SMALL
NO_CHARGES


@<TRIPOS>ATOM
   1 C1             0.6192    -0.3699    -1.1707 C.2     
   2 N2             1.0406    -1.6420    -1.0677 N.am    
   3 C3             2.4711    -1.6407    -0.7407 C.3     
   4 C4             2.8817    -0.1918    -0.6545 C.ar    
   5 C5             4.0736     0.4322    -0.3849 C.ar    
   6 C6             4.1426     1.8240    -0.3761 C.ar    
   7 C7             3.0029     2.5797    -0.6401 C.ar    
   8 C8             1.8061     1.9575    -0.9103 C.ar    
   9 C9             1.7325     0.5607    -0.9211 C.ar    
  10 O10           -0.5190    -0.0351    -1.4373 O.2     
  11 N11            5.3494     2.4584    -0.1032 N.pl3   
  12 C12            6.5483     1.6636     0.1750 C.3     
  13 C13            5.1877     4.5654     1.0735 C.ar    
  14 C14            5.4189     3.8568    -0.0943 C.ar    
  15 C15            5.7236     4.5613    -1.2654 C.ar    
  16 C16            5.7806     5.9514    -1.2020 C.ar    
  17 C17            5.5369     6.5799     0.0025 C.ar    
  18 N18            5.2525     5.8836     1.0868 N.ar    
  19 N19            5.9641     3.8888    -2.4635 N.pl3   
  20 C20            6.1138     4.6092    -3.6511 C.ar    
  21 C21            7.0954     4.2481    -4.5655 C.ar    
  22 C22            7.2406     4.9624    -5.7384 C.ar    
  23 C23            6.4103     6.0362    -6.0033 C.ar    
  24 C24            5.4325     6.3987    -5.0951 C.ar    
  25 C25            5.2777     5.6849    -3.9230 C.ar    
  26 C26            0.2085    -2.8337    -1.2511 C.3     
  27 C27            0.2403    -3.2565    -2.7212 C.3     
  28 C28           -0.6287    -4.5012    -2.9128 C.3     
  29 C29           -0.5969    -4.9240    -4.3828 C.3     
  30 H30            2.6371    -2.1349     0.2165 H       
  31 H31            3.0353    -2.1441    -1.5258 H       
  32 H32            4.9569    -0.1544    -0.1796 H       
  33 H33            3.0588     3.6582    -0.6323 H       
  34 H34            0.9243     2.5469    -1.1138 H       
  35 H35            7.0747     1.4616    -0.7578 H       
  36 H36            7.2025     2.2167     0.8490 H       
  37 H37            6.2595     0.7214     0.6407 H       
  38 H38            4.9474     4.0334     1.9822 H       
  39 H39            6.0129     6.5301    -2.0838 H       
  40 H40            5.5799     7.6576     0.0585 H       
  41 H41            6.0273     2.9209    -2.4722 H       
  42 H42            7.7444     3.4099    -4.3592 H       
  43 H43            8.0037     4.6824    -6.4495 H       
  44 H44            6.5261     6.5931    -6.9213 H       
  45 H45            4.7862     7.2382    -5.3047 H       
  46 H46            4.5106     5.9656    -3.2164 H       
  47 H47            0.5929    -3.6441    -0.6316 H       
  48 H48           -0.8175    -2.6089    -0.9598 H       
  49 H49           -0.1440    -2.4462    -3.3407 H       
  50 H50            1.2663    -3.4814    -3.0125 H       
  51 H51           -0.2444    -5.3115    -2.2933 H       
  52 H52           -1.6547    -4.2763    -2.6215 H       
  53 H53            0.4291    -5.1488    -4.6742 H       
  54 H54           -1.2160    -5.8107    -4.5193 H       
  55 H55           -0.9812    -4.1137    -5.0023 H       
@<TRIPOS>BOND
   1    1    2 am
   2    1    9 1
   3    1   10 2
   4    2    3 1
   5    2   26 1
   6    3    4 1
   7    3   30 1
   8    3   31 1
   9    4    5 ar
  10    4    9 ar
  11    5    6 ar
  12    5   32 1
  13    6    7 ar
  14    6   11 1
  15    7    8 ar
  16    7   33 1
  17    8    9 ar
  18    8   34 1
  19   11   12 1
  20   11   14 1
  21   12   35 1
  22   12   36 1
  23   12   37 1
  24   13   14 ar
  25   13   18 ar
  26   13   38 1
  27   14   15 ar
  28   15   16 ar
  29   15   19 1
  30   16   17 ar
  31   16   39 1
  32   17   18 ar
  33   17   40 1
  34   19   20 1
  35   19   41 1
  36   20   21 ar
  37   20   25 ar
  38   21   22 ar
  39   21   42 1
  40   22   23 ar
  41   22   43 1
  42   23   24 ar
  43   23   44 1
  44   24   25 ar
  45   24   45 1
  46   25   46 1
  47   26   27 1
  48   26   47 1
  49   26   48 1
  50   27   28 1
  51   27   49 1
  52   27   50 1
  53   28   29 1
  54   28   51 1
  55   28   52 1
  56   29   53 1
  57   29   54 1
  58   29   55 1

#	End of record

