#	Name: ASD07931973
#	Creating user name:	WinNT
#	Creation time:	15. 06. 2019 21:14

#	Modifying user name:	WinNT
#	Modification time:	15. 06. 2019 21:14

#	Program:	/corina/corina34_cracker 3.40 0067  02.08.2006

@<TRIPOS>MOLECULE
ASD07931973
  72   74    0    0    0
SMALL
NO_CHARGES


@<TRIPOS>ATOM
   1 C1            -0.0173     1.4248     0.0099 C.3     
   2 O2             0.0021    -0.0041     0.0020 O.3     
   3 O3             2.9628     2.7404     1.6140 O.3     
   4 C4             2.1386     1.5923     1.3167 C.3     
   5 C5             1.4181     1.9544    -0.0010 C.3     
   6 C6             1.4250     3.4993    -0.0204 C.3     
   7 C7             2.1489     3.8879     1.2878 C.3     
   8 C8             3.0079     0.3481     1.1239 C.3     
   9 F9             3.7064     0.0796     2.3059 F       
  10 F10            2.1943    -0.7443     0.8046 F       
  11 F11            3.9178     0.5714     0.0850 F       
  12 C12            2.1866     4.0089    -1.2168 C.ar    
  13 C13            3.5226     3.6820    -1.3781 C.ar    
  14 C14            4.2210     4.1510    -2.4776 C.ar    
  15 C15            3.5843     4.9447    -3.4130 C.ar    
  16 C16            2.2508     5.2707    -3.2507 C.ar    
  17 C17            1.5507     4.7979    -2.1562 C.ar    
  18 F18            4.1440     2.9065    -0.4629 F       
  19 N19            0.0515     4.0202    -0.0230 N.3     
  20 H20           -0.5445     1.7859    -0.8732 H       
  21 H21           -0.5275     1.7763     0.9067 H       
  22 H22           -0.8759    -0.4094     0.0082 H       
  23 H23            1.4130     1.4295     2.1136 H       
  24 H24            1.9655     1.5592    -0.8567 H       
  25 H25            1.4248     4.0772     2.0802 H       
  26 H26            2.7761     4.7650     1.1282 H       
  27 H27            5.2630     3.8969    -2.6042 H       
  28 H28            4.1289     5.3106    -4.2708 H       
  29 H29            1.7543     5.8916    -3.9818 H       
  30 H30            0.5075     5.0490    -2.0331 H       
  31 H31            0.0474     5.0291    -0.0356 H       
  32 H32           -0.4755     3.6467    -0.7982 H       
  33 C33           17.0580    14.8825    11.3237 C.2     
  34 C34           15.7429    15.6181    11.3340 C.3     
  35 C35           15.6016    16.3920    12.6462 C.3     
  36 C36           14.2367    17.0277    12.7101 C.2     
  37 O37           17.0744    13.6743    11.3171 O.2     
  38 O38           18.2112    15.5694    11.3164 O.3     
  39 O39           13.4455    16.6763    13.5530 O.2     
  40 O40           13.8999    17.9841    11.8306 O.3     
  41 O41           15.7642    15.4812    13.7652 O.3     
  42 C42           16.2803    15.9922    14.8998 C.2     
  43 C43           16.4744    15.1243    16.0794 C.ar    
  44 C44           17.0091    15.6507    17.2569 C.ar    
  45 C45           17.1872    14.8348    18.3549 C.ar    
  46 C46           16.8376    13.4976    18.2910 C.ar    
  47 C47           16.3072    12.9694    17.1272 C.ar    
  48 C48           16.1185    13.7753    16.0237 C.ar    
  49 O49           16.5862    17.1665    14.9528 O.2     
  50 O50           14.6541    14.6649    11.2146 O.3     
  51 C51           14.2409    14.3612     9.9689 C.2     
  52 C52           13.1377    13.3990     9.7707 C.ar    
  53 C53           12.7069    13.0819     8.4809 C.ar    
  54 C54           11.6765    12.1822     8.3030 C.ar    
  55 C55           11.0698    11.5948     9.3990 C.ar    
  56 C56           11.4917    11.9044    10.6799 C.ar    
  57 C57           12.5248    12.7981    10.8720 C.ar    
  58 O58           14.7755    14.8785     9.0087 O.2     
  59 H59           15.7095    16.3145    10.4961 H       
  60 H60           16.3661    17.1674    12.6949 H       
  61 H61           19.0293    15.0538    11.3058 H       
  62 H62           13.0135    18.3621    11.9111 H       
  63 H63           17.2830    16.6942    17.3079 H       
  64 H64           17.6007    15.2407    19.2663 H       
  65 H65           16.9798    12.8630    19.1533 H       
  66 H66           16.0365    11.9248    17.0841 H       
  67 H67           15.7001    13.3629    15.1175 H       
  68 H68           13.1792    13.5403     7.6246 H       
  69 H69           11.3424    11.9361     7.3059 H       
  70 H70           10.2630    10.8916     9.2541 H       
  71 H71           11.0138    11.4423    11.5311 H       
  72 H72           12.8562    13.0355    11.8722 H       
@<TRIPOS>BOND
   1    1    2 1
   2    1    5 1
   3    1   20 1
   4    1   21 1
   5    2   22 1
   6    3    4 1
   7    3    7 1
   8    4    5 1
   9    4    8 1
  10    4   23 1
  11    5    6 1
  12    5   24 1
  13    6    7 1
  14    6   12 1
  15    6   19 1
  16    7   25 1
  17    7   26 1
  18    8    9 1
  19    8   10 1
  20    8   11 1
  21   12   13 ar
  22   12   17 ar
  23   13   14 ar
  24   13   18 1
  25   14   15 ar
  26   14   27 1
  27   15   16 ar
  28   15   28 1
  29   16   17 ar
  30   16   29 1
  31   17   30 1
  32   19   31 1
  33   19   32 1
  34   33   37 2
  35   33   38 1
  36   33   34 1
  37   34   35 1
  38   34   50 1
  39   34   59 1
  40   35   36 1
  41   35   41 1
  42   35   60 1
  43   36   39 2
  44   36   40 1
  45   38   61 1
  46   40   62 1
  47   41   42 1
  48   42   43 1
  49   42   49 2
  50   43   44 ar
  51   43   48 ar
  52   44   45 ar
  53   44   63 1
  54   45   46 ar
  55   45   64 1
  56   46   47 ar
  57   46   65 1
  58   47   48 ar
  59   47   66 1
  60   48   67 1
  61   50   51 1
  62   51   52 1
  63   51   58 2
  64   52   53 ar
  65   52   57 ar
  66   53   54 ar
  67   53   68 1
  68   54   55 ar
  69   54   69 1
  70   55   56 ar
  71   55   70 1
  72   56   57 ar
  73   56   71 1
  74   57   72 1

#	End of record

