#	Name: ASD01913680
#	Creating user name:	WinNT
#	Creation time:	15. 06. 2019 20:02

#	Modifying user name:	WinNT
#	Modification time:	15. 06. 2019 20:02

#	Program:	/corina/corina34_cracker 3.40 0067  02.08.2006

@<TRIPOS>MOLECULE
ASD01913680
  38   40    0    0    0
SMALL
NO_CHARGES


@<TRIPOS>ATOM
   1 C1             0.0254     1.2220     0.0114 C.ar    
   2 N2             0.0572    -0.0964     0.0156 N.ar    
   3 C3             1.1952    -0.7626     0.0111 C.ar    
   4 C4             2.4052    -0.0948     0.0021 C.ar    
   5 C5             2.4118     1.2916    -0.0027 C.ar    
   6 C6             1.1955     1.9573     0.0019 C.ar    
   7 C7             3.7100     2.0569    -0.0120 C.3     
   8 O8             4.1133     2.2942    -1.3622 O.3     
   9 C9             5.2696     2.9758    -1.5481 C.ar    
  10 N10            5.9624     3.3845    -0.4964 N.ar    
  11 C11            7.0914     4.0495    -0.6251 C.ar    
  12 C12            7.6002     4.3485    -1.8895 C.ar    
  13 C13            6.8903     3.9296    -3.0248 C.ar    
  14 C14            5.7148     3.2311    -2.8417 C.ar    
  15 C15            8.8658     5.0945    -2.0305 C.2     
  16 N16            9.5394     5.4925    -0.9331 N.am    
  17 O17            9.3009     5.3502    -3.1369 O.2     
  18 C18           10.7970     6.0954    -1.0634 C.ar    
  19 C19           11.1888     7.0893    -0.1726 C.ar    
  20 C20           12.4309     7.6821    -0.3037 C.ar    
  21 C21           13.2835     7.2869    -1.3211 C.ar    
  22 C22           12.8945     6.2978    -2.2082 C.ar    
  23 C23           11.6564     5.6982    -2.0779 C.ar    
  24 F24           10.3564     7.4751     0.8191 F       
  25 F25           14.4966     7.8678    -1.4482 F       
  26 H26           -0.9261     1.7329     0.0108 H       
  27 H27            1.1816    -1.8425     0.0148 H       
  28 H28            3.3340    -0.6461    -0.0009 H       
  29 H29            1.1630     3.0368    -0.0019 H       
  30 H30            3.5737     3.0098     0.4993 H       
  31 H31            4.4776     1.4765     0.4998 H       
  32 H32            7.6287     4.3670     0.2564 H       
  33 H33            7.2569     4.1454    -4.0175 H       
  34 H34            5.1425     2.8929    -3.6928 H       
  35 H35            9.1532     5.3613    -0.0529 H       
  36 H36           12.7363     8.4539     0.3873 H       
  37 H37           13.5612     5.9918    -3.0009 H       
  38 H38           11.3542     4.9268    -2.7707 H       
@<TRIPOS>BOND
   1    1    2 ar
   2    1    6 ar
   3    1   26 1
   4    2    3 ar
   5    3    4 ar
   6    3   27 1
   7    4    5 ar
   8    4   28 1
   9    5    6 ar
  10    5    7 1
  11    6   29 1
  12    7    8 1
  13    7   30 1
  14    7   31 1
  15    8    9 1
  16    9   10 ar
  17    9   14 ar
  18   10   11 ar
  19   11   12 ar
  20   11   32 1
  21   12   13 ar
  22   12   15 1
  23   13   14 ar
  24   13   33 1
  25   14   34 1
  26   15   16 am
  27   15   17 2
  28   16   18 1
  29   16   35 1
  30   18   19 ar
  31   18   23 ar
  32   19   20 ar
  33   19   24 1
  34   20   21 ar
  35   20   36 1
  36   21   22 ar
  37   21   25 1
  38   22   23 ar
  39   22   37 1
  40   23   38 1

#	End of record

