#	Name: ASD01140378
#	Creating user name:	WinNT
#	Creation time:	15. 06. 2019 19:00

#	Modifying user name:	WinNT
#	Modification time:	15. 06. 2019 19:00

#	Program:	/corina/corina34_cracker 3.40 0067  02.08.2006

@<TRIPOS>MOLECULE
ASD01140378
  53   57    0    0    0
SMALL
NO_CHARGES


@<TRIPOS>ATOM
   1 N1            -0.0141     1.3360     0.0122 N.pl3   
   2 C2             0.0033    -0.0034    -0.0026 C.2     
   3 C3             1.1785    -0.7253    -0.0038 C.2     
   4 C4             2.4575     0.0030     0.0112 C.2     
   5 C5             2.3919     1.4751     0.0267 C.ar    
   6 C6             3.5511     2.2525     0.0411 C.ar    
   7 C7             3.4078     3.6343     0.0548 C.ar    
   8 C8             2.1283     4.1835     0.0535 C.ar    
   9 N9             1.0537     3.4241     0.0402 N.ar    
  10 C10            1.1320     2.0992     0.0269 C.ar    
  11 C11            1.1541    -2.1965    -0.0194 C.2     
  12 O12            0.0954    -2.7882     0.0725 O.2     
  13 N13            2.3049    -2.8883    -0.1354 N.am    
  14 O14            3.5244    -0.5858     0.0112 O.2     
  15 C15           -1.3100     2.0193     0.0064 C.3     
  16 N16            4.5346     4.4633     0.0700 N.pl3   
  17 C17            5.6079     6.6026     0.7084 C.3     
  18 C18            4.3726     5.9193     0.0843 C.3     
  19 C19            4.3711     6.4853    -1.3517 C.3     
  20 C20            5.0713     7.8235    -1.2507 C.ar    
  21 C21            5.0856     8.8972    -2.1253 C.ar    
  22 C22            5.8071    10.0341    -1.8185 C.ar    
  23 C23            6.5179    10.1015    -0.6346 C.ar    
  24 C24            6.5049     9.0318     0.2389 C.ar    
  25 C25            5.7819     7.8909    -0.0671 C.ar    
  26 C26            2.2947    -4.3497    -0.0323 C.3     
  27 C27           -1.7760     2.2410     1.4468 C.3     
  28 C28            3.4266    -5.1145    -0.7213 C.3     
  29 C29            3.3943    -5.0065     0.8046 C.3     
  30 H30           -0.9358    -0.5366    -0.0136 H       
  31 H31            4.5290     1.7941     0.0420 H       
  32 H32            2.0152     5.2575     0.0641 H       
  33 H33            3.1400    -2.4187    -0.2872 H       
  34 H34           -1.2111     2.9816    -0.4957 H       
  35 H35           -2.0411     1.4073    -0.5218 H       
  36 H36            5.4231     4.0741     0.0711 H       
  37 H37            5.4296     6.8166     1.7622 H       
  38 H38            6.4882     5.9702     0.5937 H       
  39 H39            3.4639     6.2012     0.6161 H       
  40 H40            4.9188     5.8213    -2.0205 H       
  41 H41            3.3485     6.6192    -1.7044 H       
  42 H42            4.5309     8.8452    -3.0505 H       
  43 H43            5.8165    10.8695    -2.5029 H       
  44 H44            7.0830    10.9896    -0.3932 H       
  45 H45            7.0604     9.0852     1.1635 H       
  46 H46            1.3082    -4.8132    -0.0207 H       
  47 H47           -1.0450     2.8530     1.9751 H       
  48 H48           -2.7402     2.7493     1.4425 H       
  49 H49           -1.8749     1.2786     1.9489 H       
  50 H50            3.1849    -6.0814    -1.1626 H       
  51 H51            4.1789    -4.5304    -1.2513 H       
  52 H52            4.1253    -4.3514     1.2784 H       
  53 H53            3.1313    -5.9024     1.3671 H       
@<TRIPOS>BOND
   1    1    2 1
   2    1   10 1
   3    1   15 1
   4    2    3 2
   5    2   30 1
   6    3    4 1
   7    3   11 1
   8    4    5 1
   9    4   14 2
  10    5    6 ar
  11    5   10 ar
  12    6    7 ar
  13    6   31 1
  14    7    8 ar
  15    7   16 1
  16    8    9 ar
  17    8   32 1
  18    9   10 ar
  19   11   12 2
  20   11   13 am
  21   13   26 1
  22   13   33 1
  23   15   27 1
  24   15   34 1
  25   15   35 1
  26   16   18 1
  27   16   36 1
  28   17   18 1
  29   17   25 1
  30   17   37 1
  31   17   38 1
  32   18   19 1
  33   18   39 1
  34   19   20 1
  35   19   40 1
  36   19   41 1
  37   20   21 ar
  38   20   25 ar
  39   21   22 ar
  40   21   42 1
  41   22   23 ar
  42   22   43 1
  43   23   24 ar
  44   23   44 1
  45   24   25 ar
  46   24   45 1
  47   26   28 1
  48   26   29 1
  49   26   46 1
  50   27   47 1
  51   27   48 1
  52   27   49 1
  53   28   29 1
  54   28   50 1
  55   28   51 1
  56   29   52 1
  57   29   53 1

#	End of record

