#	Name: ASD01911312
#	Creating user name:	WinNT
#	Creation time:	15. 06. 2019 19:57

#	Modifying user name:	WinNT
#	Modification time:	15. 06. 2019 19:57

#	Program:	/corina/corina34_cracker 3.40 0067  02.08.2006

@<TRIPOS>MOLECULE
ASD01911312
  29   31    0    0    0
SMALL
NO_CHARGES


@<TRIPOS>ATOM
   1 C1            -0.0167     1.3796     0.0096 C.ar    
   2 C2             0.0021    -0.0041     0.0020 C.ar    
   3 C3             1.2058    -0.6865    -0.0131 C.ar    
   4 C4             2.3967     0.0091    -0.0203 C.ar    
   5 C5             2.3857     1.4065    -0.0127 C.ar    
   6 C6             1.1662     2.0887     0.0021 C.ar    
   7 C7             3.6181     2.1358    -0.0195 C.1     
   8 C8             4.6284     2.7337    -0.0252 C.1     
   9 C9             5.8608     3.4629    -0.0321 C.ar    
  10 C10            5.8633     4.8593    -0.0246 C.ar    
  11 N11            6.9919     5.5316    -0.0313 N.ar    
  12 C12            8.1822     4.9276    -0.0451 C.ar    
  13 C13            8.2491     3.5393    -0.0527 C.ar    
  14 C14            7.0922     2.7897    -0.0406 C.ar    
  15 N15            9.4485     5.4985    -0.0531 N.pl3   
  16 C16           10.4767     4.4552    -0.0673 C.3     
  17 C17            9.7027     3.1263    -0.0673 C.3     
  18 H18           -0.9600     1.9055     0.0169 H       
  19 H19           -0.9274    -0.5541     0.0083 H       
  20 H20            1.2128    -1.7664    -0.0190 H       
  21 H21            3.3354    -0.5248    -0.0314 H       
  22 H22            1.1500     3.1686     0.0077 H       
  23 H23            4.9249     5.3937    -0.0134 H       
  24 H24            7.1324     1.7104    -0.0464 H       
  25 H25            9.6266     6.4521    -0.0501 H       
  26 H26           11.0866     4.5375    -0.9669 H       
  27 H27           11.1021     4.5285     0.8224 H       
  28 H28            9.9428     2.5456     0.8233 H       
  29 H29            9.9273     2.5547    -0.9679 H       
@<TRIPOS>BOND
   1    1    2 ar
   2    1    6 ar
   3    1   18 1
   4    2    3 ar
   5    2   19 1
   6    3    4 ar
   7    3   20 1
   8    4    5 ar
   9    4   21 1
  10    5    6 ar
  11    5    7 1
  12    6   22 1
  13    7    8 3
  14    8    9 1
  15    9   10 ar
  16    9   14 ar
  17   10   11 ar
  18   10   23 1
  19   11   12 ar
  20   12   13 ar
  21   12   15 1
  22   13   14 ar
  23   13   17 1
  24   14   24 1
  25   15   16 1
  26   15   25 1
  27   16   17 1
  28   16   26 1
  29   16   27 1
  30   17   28 1
  31   17   29 1

#	End of record

