#	Name: ASD01840037
#	Creating user name:	WinNT
#	Creation time:	15. 06. 2019 19:37

#	Modifying user name:	WinNT
#	Modification time:	15. 06. 2019 19:37

#	Program:	/corina/corina34_cracker 3.40 0067  02.08.2006

@<TRIPOS>MOLECULE
ASD01840037
  33   35    0    0    0
SMALL
NO_CHARGES


@<TRIPOS>ATOM
   1 C1             0.3560     1.7748    -1.6036 C.ar    
   2 C2             0.5825     0.6554    -2.3732 C.ar    
   3 C3             1.8176     0.0245    -2.3121 C.ar    
   4 N4             2.7719     0.4769    -1.5331 N.ar    
   5 C5             2.6123     1.5575    -0.7638 C.ar    
   6 C6             1.3958     2.2487    -0.7703 C.ar    
   7 S7             3.7413     2.3295     0.3434 S.3     
   8 C8             2.5818     3.5661     0.7873 C.2     
   9 C9             1.4062     3.3925     0.1252 C.2     
  10 C10           -0.9723     2.4849    -1.6530 C.3     
  11 C11            2.0664    -1.2005    -3.1539 C.3     
  12 N12            0.3157     4.2310     0.2911 N.pl3   
  13 C13            2.8347     4.6066     1.7113 C.2     
  14 C14            4.1117     4.6389     2.4577 C.ar    
  15 O15            2.0009     5.4762     1.8927 O.2     
  16 C16            4.6847     5.8555     2.8313 C.ar    
  17 N17            5.8209     5.8844     3.4959 N.ar    
  18 C18            6.4592     4.7799     3.8333 C.ar    
  19 C19            5.9570     3.5349     3.5002 C.ar    
  20 C20            4.7627     3.4498     2.8061 C.ar    
  21 Cl21          -0.6657     0.0385    -3.4102 Cl      
  22 H22           -1.6139     2.1114    -0.8550 H       
  23 H23           -0.8168     3.5559    -1.5230 H       
  24 H24           -1.4469     2.3010    -2.6169 H       
  25 H25            2.4682    -0.9008    -4.1218 H       
  26 H26            2.7818    -1.8494    -2.6487 H       
  27 H27            1.1291    -1.7374    -3.3001 H       
  28 H28           -0.5780     3.9089     0.0950 H       
  29 H29            0.4460     5.1401     0.6033 H       
  30 H30            4.1919     6.7811     2.5727 H       
  31 H31            7.3890     4.8492     4.3782 H       
  32 H32            6.4894     2.6386     3.7820 H       
  33 H33            4.3458     2.4906     2.5368 H       
@<TRIPOS>BOND
   1    1    2 ar
   2    1    6 ar
   3    1   10 1
   4    2    3 ar
   5    2   21 1
   6    3    4 ar
   7    3   11 1
   8    4    5 ar
   9    5    7 1
  10    5    6 ar
  11    6    9 1
  12    7    8 1
  13    8    9 2
  14    8   13 1
  15    9   12 1
  16   10   22 1
  17   10   23 1
  18   10   24 1
  19   11   25 1
  20   11   26 1
  21   11   27 1
  22   12   28 1
  23   12   29 1
  24   13   14 1
  25   13   15 2
  26   14   16 ar
  27   14   20 ar
  28   16   17 ar
  29   16   30 1
  30   17   18 ar
  31   18   19 ar
  32   18   31 1
  33   19   20 ar
  34   19   32 1
  35   20   33 1

#	End of record

