#	Name: ASD01028155
#	Creating user name:	WinNT
#	Creation time:	15. 06. 2019 18:56

#	Modifying user name:	WinNT
#	Modification time:	15. 06. 2019 18:56

#	Program:	/corina/corina34_cracker 3.40 0067  02.08.2006

@<TRIPOS>MOLECULE
ASD01028155
  65   69    0    0    0
SMALL
NO_CHARGES


@<TRIPOS>ATOM
   1 C1             1.9213    -3.3611     1.5145 C.ar    
   2 C2             0.9738    -2.6427     0.7647 C.ar    
   3 C3             1.3674    -1.4504     0.1467 C.ar    
   4 C4             2.6767    -1.0304     0.3020 C.ar    
   5 C5             3.5518    -1.7921     1.0557 C.ar    
   6 N6             3.1618    -2.9130     1.6304 N.ar    
   7 C7            -0.4087    -3.1365     0.6314 C.2     
   8 O8            -0.7073    -4.2327     1.0651 O.2     
   9 N9            -1.3418    -2.3730     0.0290 N.am    
  10 N10            1.5541    -4.5398     2.1395 N.pl3   
  11 C11            2.5121    -5.2994     2.8174 C.ar    
  12 C12            2.3122    -6.6584     3.0072 C.ar    
  13 C13            3.2710    -7.4116     3.6835 C.ar    
  14 C14            4.4261    -6.7925     4.1652 C.ar    
  15 C15            4.6157    -5.4395     3.9717 C.ar    
  16 C16            3.6679    -4.6936     3.2961 C.ar    
  17 O17            2.0029    -9.5896     3.4823 O.3     
  18 C18            2.2057   -10.8569     3.8677 C.2     
  19 N19            3.3465   -10.9334     4.4939 N.2     
  20 C20            3.9067    -9.7151     4.5268 C.2     
  21 C21            3.0650    -8.8609     3.8904 C.2     
  22 C22           -2.6636    -2.8215    -0.0563 C.ar    
  23 C23           -3.7111    -1.9125     0.0026 C.ar    
  24 C24           -5.0196    -2.3608    -0.0823 C.ar    
  25 C25           -5.2800    -3.7167    -0.2259 C.ar    
  26 C26           -4.2361    -4.6201    -0.2843 C.ar    
  27 C27           -2.9300    -4.1766    -0.2058 C.ar    
  28 C28           -4.5227    -6.0914    -0.4397 C.3     
  29 F29           -5.9057    -6.2931    -0.5018 F       
  30 F30           -3.9298    -6.5602    -1.6170 F       
  31 F31           -3.9987    -6.7868     0.6553 F       
  32 O32           -6.0474    -1.4735    -0.0245 O.3     
  33 C33           -5.7059    -0.0940     0.1244 C.3     
  34 N34           -6.6409     2.1772     0.2548 N.3     
  35 C35           -6.9840     0.7458     0.1698 C.3     
  36 C36           -7.7980     0.3950     1.4330 C.3     
  37 C37           -8.3552     1.7712     1.8831 C.3     
  38 C38           -7.1837     2.7172     1.5196 C.3     
  39 C39           -5.1873     2.3756     0.1785 C.3     
  40 H40            0.6665    -0.8724    -0.4375 H       
  41 H41            3.0130    -0.1150    -0.1620 H       
  42 H42            4.5732    -1.4624     1.1757 H       
  43 H43           -1.0965    -1.5125    -0.3455 H       
  44 H44            0.6320    -4.8390     2.1072 H       
  45 H45            1.4166    -7.1317     2.6327 H       
  46 H46            5.1711    -7.3726     4.6896 H       
  47 H47            5.5096    -4.9624     4.3457 H       
  48 H48            3.8240    -3.6359     3.1435 H       
  49 H49            1.5322   -11.6820     3.6887 H       
  50 H50            4.8546    -9.4602     4.9775 H       
  51 H51           -3.5067    -0.8580     0.1147 H       
  52 H52           -6.2998    -4.0660    -0.2916 H       
  53 H53           -2.1157    -4.8843    -0.2566 H       
  54 H54           -5.1473     0.0442     1.0502 H       
  55 H55           -5.0934     0.2219    -0.7201 H       
  56 H56           -7.5839     0.5605    -0.7212 H       
  57 H57           -8.6110    -0.2891     1.1900 H       
  58 H58           -7.1525    -0.0295     2.2019 H       
  59 H59           -9.2542     2.0303     1.3237 H       
  60 H60           -8.5479     1.7826     2.9558 H       
  61 H61           -6.4223     2.6952     2.2993 H       
  62 H62           -7.5483     3.7338     1.3727 H       
  63 H63           -4.8189     1.9993    -0.7758 H       
  64 H64           -4.9609     3.4386     0.2618 H       
  65 H65           -4.7038     1.8362     0.9929 H       
@<TRIPOS>BOND
   1    1    2 ar
   2    1    6 ar
   3    1   10 1
   4    2    3 ar
   5    2    7 1
   6    3    4 ar
   7    3   40 1
   8    4    5 ar
   9    4   41 1
  10    5    6 ar
  11    5   42 1
  12    7    8 2
  13    7    9 am
  14    9   22 1
  15    9   43 1
  16   10   11 1
  17   10   44 1
  18   11   12 ar
  19   11   16 ar
  20   12   13 ar
  21   12   45 1
  22   13   14 ar
  23   13   21 1
  24   14   15 ar
  25   14   46 1
  26   15   16 ar
  27   15   47 1
  28   16   48 1
  29   17   18 1
  30   17   21 1
  31   18   19 2
  32   18   49 1
  33   19   20 1
  34   20   21 2
  35   20   50 1
  36   22   23 ar
  37   22   27 ar
  38   23   24 ar
  39   23   51 1
  40   24   25 ar
  41   24   32 1
  42   25   26 ar
  43   25   52 1
  44   26   27 ar
  45   26   28 1
  46   27   53 1
  47   28   29 1
  48   28   30 1
  49   28   31 1
  50   32   33 1
  51   33   35 1
  52   33   54 1
  53   33   55 1
  54   34   35 1
  55   34   38 1
  56   34   39 1
  57   35   36 1
  58   35   56 1
  59   36   37 1
  60   36   57 1
  61   36   58 1
  62   37   38 1
  63   37   59 1
  64   37   60 1
  65   38   61 1
  66   38   62 1
  67   39   63 1
  68   39   64 1
  69   39   65 1

#	End of record

