#	Name: ASD01208610
#	Creating user name:	WinNT
#	Creation time:	15. 06. 2019 19:10

#	Modifying user name:	WinNT
#	Modification time:	15. 06. 2019 19:10

#	Program:	/corina/corina34_cracker 3.40 0067  02.08.2006

@<TRIPOS>MOLECULE
ASD01208610
 110  112    0    0    0
SMALL
NO_CHARGES


@<TRIPOS>ATOM
   1 O1            -2.6380     2.8107    -0.2209 O.3     
   2 C2            -2.7178     1.6854    -0.9633 C.2     
   3 N3            -2.0170     1.7308    -2.0586 N.2     
   4 C4            -1.3325     3.0370    -2.1198 C.3     
   5 C5            -1.4815     3.5484    -0.6663 C.3     
   6 C6             0.1421     2.8641    -2.4895 C.3     
   7 O7             0.2432     2.3725    -3.8274 O.3     
   8 Si8            1.7760     2.1469    -4.3372 Si      
   9 C9             1.2051     0.0824    -6.1046 C.3     
  10 C10            1.7608     1.5078    -6.0871 C.3     
  11 C11            0.8781     2.4100    -6.9519 C.3     
  12 C12            4.0974     3.5789    -4.8593 C.3     
  13 C13            2.6956     3.7660    -4.2754 C.3     
  14 C14            1.9382     4.8142    -5.0931 C.3     
  15 C15            1.6744    -0.2591    -2.9543 C.3     
  16 C16            2.6224     0.9094    -3.2314 C.3     
  17 C17            3.8852     0.3891    -3.9211 C.3     
  18 C18           -0.2495     3.1950     0.1692 C.3     
  19 N19           -4.2802     0.4076     0.5701 N.pl3   
  20 C20           -3.5204     0.5183    -0.5704 C.2     
  21 C21           -3.6430    -0.6561    -1.2808 C.2     
  22 C22           -4.4926    -1.4957    -0.5589 C.2     
  23 C23           -4.8752    -0.8224     0.5792 C.2     
  24 C24           -5.7749    -1.3412     1.6310 C.ar    
  25 C25           -6.0833    -0.5520     2.7399 C.ar    
  26 C26           -6.9270    -1.0418     3.7226 C.ar    
  27 C27           -7.4653    -2.3155     3.6062 C.ar    
  28 C28           -7.1614    -3.1034     2.5056 C.ar    
  29 C29           -6.3228    -2.6190     1.5150 C.ar    
  30 O30           -7.6912    -4.3501     2.3964 O.3     
  31 Si31          -9.0157    -4.4273     1.4478 Si      
  32 C32          -10.4680    -6.2955    -0.0056 C.3     
  33 C33           -9.4534    -6.2112     1.1364 C.3     
  34 C34           -8.1910    -6.9871     0.7554 C.3     
  35 C35          -10.5115    -4.0398     3.7553 C.3     
  36 C36          -10.4391    -3.5780     2.2984 C.3     
  37 C37          -10.2295    -2.0631     2.2534 C.3     
  38 C38           -7.7161    -4.4437    -1.0063 C.3     
  39 C39           -8.6676    -3.5809    -0.1749 C.3     
  40 C40           -9.9783    -3.3852    -0.9395 C.3     
  41 O41           -7.2280    -0.2741     4.8029 O.3     
  42 C42           -6.5750     1.4917     6.3182 C.3     
  43 C43           -6.6328     1.0237     4.8627 C.3     
  44 C44           -7.4707     2.0073     4.0435 C.3     
  45 O45           -7.9033     1.6618     6.8169 O.3     
  46 C46           -7.9623     2.0996     8.1759 C.3     
  47 H47           -1.8321     3.7057    -2.8207 H       
  48 H48           -1.6707     4.6217    -0.6467 H       
  49 H49            0.6501     3.8256    -2.4163 H       
  50 H50            0.6073     2.1543    -1.8055 H       
  51 H51            0.2502     0.0582    -5.5795 H       
  52 H52            1.0607    -0.2386    -7.1362 H       
  53 H53            1.9085    -0.5879    -5.6105 H       
  54 H54            2.7766     1.5067    -6.4823 H       
  55 H55            1.3387     3.3940    -7.0383 H       
  56 H56            0.7709     1.9706    -7.9436 H       
  57 H57           -0.1043     2.5079    -6.4898 H       
  58 H58            4.0223     3.1156    -5.8430 H       
  59 H59            4.5852     4.5493    -4.9510 H       
  60 H60            4.6832     2.9386    -4.1998 H       
  61 H61            2.7745     4.0997    -3.2408 H       
  62 H62            0.8785     4.7755    -4.8409 H       
  63 H63            2.3300     5.8055    -4.8650 H       
  64 H64            2.0666     4.6084    -6.1557 H       
  65 H65            1.4888    -0.8038    -3.8800 H       
  66 H66            2.1273    -0.9289    -2.2232 H       
  67 H67            0.7319     0.1229    -2.5621 H       
  68 H68            2.8934     1.3885    -2.2906 H       
  69 H69            4.4218    -0.2751    -3.2436 H       
  70 H70            3.6079    -0.1578    -4.8222 H       
  71 H71            4.5256     1.2296    -4.1887 H       
  72 H72           -0.0562     2.1247     0.0968 H       
  73 H73            0.6134     3.7461    -0.2046 H       
  74 H74           -0.4279     3.4623     1.2108 H       
  75 H75           -4.3747     1.0874     1.2557 H       
  76 H76           -3.1689    -0.8847    -2.2239 H       
  77 H77           -4.7952    -2.4931    -0.8419 H       
  78 H78           -5.6643     0.4391     2.8316 H       
  79 H79           -8.1224    -2.6947     4.3749 H       
  80 H80           -6.0900    -3.2314     0.6565 H       
  81 H81           -9.9916    -5.9923    -0.9380 H       
  82 H82          -10.8271    -7.3205    -0.0977 H       
  83 H83          -11.3081    -5.6337     0.2051 H       
  84 H84           -9.8861    -6.6421     2.0393 H       
  85 H85           -7.8267    -6.6366    -0.2103 H       
  86 H86           -7.4237    -6.8271     1.5129 H       
  87 H87           -8.4231    -8.0502     0.6922 H       
  88 H88           -9.5811    -3.7864     4.2634 H       
  89 H89          -11.3443    -3.5429     4.2529 H       
  90 H90          -10.6608    -5.1190     3.7873 H       
  91 H91          -11.3695    -3.8314     1.7902 H       
  92 H92          -10.0419    -1.7526     1.2255 H       
  93 H93          -11.1222    -1.5616     2.6273 H       
  94 H94           -9.3752    -1.7958     2.8754 H       
  95 H95           -7.4071    -3.8918    -1.8940 H       
  96 H96           -6.8384    -4.6942    -0.4104 H       
  97 H97           -8.2249    -5.3596    -1.3067 H       
  98 H98           -8.2080    -2.6105     0.0127 H       
  99 H99          -10.7014    -2.8814    -0.2981 H       
 100 H100          -9.7946    -2.7786    -1.8263 H       
 101 H101         -10.3727    -4.3562    -1.2389 H       
 102 H102          -6.0539     0.7465     6.9191 H       
 103 H103          -6.0418     2.4408     6.3738 H       
 104 H104          -5.6229     0.9793     4.4550 H       
 105 H105          -7.0167     2.9972     4.0891 H       
 106 H106          -7.5118     1.6739     3.0066 H       
 107 H107          -8.4806     2.0517     4.4512 H       
 108 H108          -7.4700     1.3670     8.8154 H       
 109 H109          -7.4579     3.0613     8.2700 H       
 110 H110          -9.0041     2.2046     8.4789 H       
@<TRIPOS>BOND
   1    1    2 1
   2    1    5 1
   3    2    3 2
   4    2   20 1
   5    3    4 1
   6    4    5 1
   7    4    6 1
   8    4   47 1
   9    5   18 1
  10    5   48 1
  11    6    7 1
  12    6   49 1
  13    6   50 1
  14    7    8 1
  15    8   10 1
  16    8   13 1
  17    8   16 1
  18    9   10 1
  19    9   51 1
  20    9   52 1
  21    9   53 1
  22   10   11 1
  23   10   54 1
  24   11   55 1
  25   11   56 1
  26   11   57 1
  27   12   13 1
  28   12   58 1
  29   12   59 1
  30   12   60 1
  31   13   14 1
  32   13   61 1
  33   14   62 1
  34   14   63 1
  35   14   64 1
  36   15   16 1
  37   15   65 1
  38   15   66 1
  39   15   67 1
  40   16   17 1
  41   16   68 1
  42   17   69 1
  43   17   70 1
  44   17   71 1
  45   18   72 1
  46   18   73 1
  47   18   74 1
  48   19   20 1
  49   19   23 1
  50   19   75 1
  51   20   21 2
  52   21   22 1
  53   21   76 1
  54   22   23 2
  55   22   77 1
  56   23   24 1
  57   24   25 ar
  58   24   29 ar
  59   25   26 ar
  60   25   78 1
  61   26   27 ar
  62   26   41 1
  63   27   28 ar
  64   27   79 1
  65   28   29 ar
  66   28   30 1
  67   29   80 1
  68   30   31 1
  69   31   33 1
  70   31   36 1
  71   31   39 1
  72   32   33 1
  73   32   81 1
  74   32   82 1
  75   32   83 1
  76   33   34 1
  77   33   84 1
  78   34   85 1
  79   34   86 1
  80   34   87 1
  81   35   36 1
  82   35   88 1
  83   35   89 1
  84   35   90 1
  85   36   37 1
  86   36   91 1
  87   37   92 1
  88   37   93 1
  89   37   94 1
  90   38   39 1
  91   38   95 1
  92   38   96 1
  93   38   97 1
  94   39   40 1
  95   39   98 1
  96   40   99 1
  97   40  100 1
  98   40  101 1
  99   41   43 1
 100   42   43 1
 101   42   45 1
 102   42  102 1
 103   42  103 1
 104   43   44 1
 105   43  104 1
 106   44  105 1
 107   44  106 1
 108   44  107 1
 109   45   46 1
 110   46  108 1
 111   46  109 1
 112   46  110 1

#	End of record

