#	Name: ASD03731873
#	Creating user name:	WinNT
#	Creation time:	15. 06. 2019 20:46

#	Modifying user name:	WinNT
#	Modification time:	15. 06. 2019 20:46

#	Program:	/corina/corina34_cracker 3.40 0067  02.08.2006

@<TRIPOS>MOLECULE
ASD03731873
  34   34    0    0    0
SMALL
NO_CHARGES


@<TRIPOS>ATOM
   1 Si1           -0.0232     1.8587     0.0123 Si      
   2 C2             0.0021    -0.0041     0.0020 C.3     
   3 C3             1.7246     2.5036    -0.0010 C.3     
   4 C4            -0.9242     2.4759    -1.4970 C.3     
   5 C5            -0.8952     2.4595     1.5450 C.3     
   6 C6            -0.1552     1.9527     2.7846 C.3     
   7 O7            -0.8241     2.4136     3.9603 O.3     
   8 C8            -0.2913     2.0490     5.1561 C.ar    
   9 C9            -0.8897     2.4614     6.3379 C.ar    
  10 C10           -0.3459     2.0888     7.5530 C.ar    
  11 C11            0.7942     1.3051     7.5905 C.ar    
  12 C12            1.3917     0.8938     6.4138 C.ar    
  13 C13            0.8484     1.2592     5.1970 C.ar    
  14 C14            1.3855     0.8999     8.9161 C.3     
  15 F15            2.5243     0.1168     8.6990 F       
  16 F16            1.7376     2.0447     9.6391 F       
  17 F17            0.4434     0.1620     9.6409 F       
  18 Cl18          -1.0932     2.6046     9.0326 Cl      
  19 H19            0.5293    -0.3651     0.8851 H       
  20 H20           -1.0205    -0.3814     0.0098 H       
  21 H21            0.5123    -0.3556    -0.8948 H       
  22 H22            2.2348     2.1521    -0.8978 H       
  23 H23            1.7098     3.5935     0.0050 H       
  24 H24            2.2518     2.1425     0.8821 H       
  25 H25           -1.9468     2.0986    -1.4893 H       
  26 H26           -0.9390     3.5658    -1.4911 H       
  27 H27           -0.4140     2.1244    -2.3938 H       
  28 H28           -0.9100     3.5494     1.5510 H       
  29 H29           -1.9178     2.0823     1.5528 H       
  30 H30           -0.1404     0.8628     2.7786 H       
  31 H31            0.8674     2.3300     2.7768 H       
  32 H32           -1.7791     3.0733     6.3085 H       
  33 H33            2.2815     0.2826     6.4455 H       
  34 H34            1.3131     0.9334     4.2782 H       
@<TRIPOS>BOND
   1    1    2 1
   2    1    3 1
   3    1    4 1
   4    1    5 1
   5    2   19 1
   6    2   20 1
   7    2   21 1
   8    3   22 1
   9    3   23 1
  10    3   24 1
  11    4   25 1
  12    4   26 1
  13    4   27 1
  14    5    6 1
  15    5   28 1
  16    5   29 1
  17    6    7 1
  18    6   30 1
  19    6   31 1
  20    7    8 1
  21    8    9 ar
  22    8   13 ar
  23    9   10 ar
  24    9   32 1
  25   10   11 ar
  26   10   18 1
  27   11   12 ar
  28   11   14 1
  29   12   13 ar
  30   12   33 1
  31   13   34 1
  32   14   15 1
  33   14   16 1
  34   14   17 1

#	End of record

