#	Name: ASD01810062
#	Creating user name:	WinNT
#	Creation time:	15. 06. 2019 19:23

#	Modifying user name:	WinNT
#	Modification time:	15. 06. 2019 19:23

#	Program:	/corina/corina34_cracker 3.40 0067  02.08.2006

@<TRIPOS>MOLECULE
ASD01810062
  62   66    0    0    0
SMALL
NO_CHARGES


@<TRIPOS>ATOM
   1 C1            -0.7621    -2.7045     2.6770 C.3     
   2 C2           -12.1846     0.9766     1.1940 C.ar    
   3 C3           -13.2715     1.2290     2.0161 C.ar    
   4 C4           -13.0775     1.6718     3.3102 C.ar    
   5 C5           -11.7910     1.8635     3.7888 C.ar    
   6 C6           -10.6950     1.6095     2.9614 C.ar    
   7 C7           -10.8972     1.1608     1.6655 C.ar    
   8 N8           -11.2801     2.2894     5.0139 N.am    
   9 C9            -9.9361     2.2938     4.9341 C.2     
  10 N10           -9.5532     1.8886     3.7086 N.am    
  11 C11           -8.1707     1.7623     3.2408 C.3     
  12 C12           -7.4770     3.1251     3.3206 C.3     
  13 C13           -6.0165     2.9746     2.8887 C.3     
  14 N14           -5.3420     2.0098     3.7665 N.3     
  15 C15           -5.9613     0.6818     3.6709 C.3     
  16 C16           -7.4201     0.7637     4.1262 C.3     
  17 O17           -9.1819     2.6156     5.8332 O.2     
  18 C18           -3.9049     1.9432     3.4696 C.3     
  19 C19           -3.2153     1.0245     4.4820 C.3     
  20 C20           -1.7300     0.9107     4.1313 C.3     
  21 N21           -1.5864     0.3685     2.7741 N.3     
  22 C22           -2.1998     1.2576     1.7794 C.3     
  23 C23           -3.6991     1.3818     2.0599 C.3     
  24 C24           -0.1750     0.1156     2.4549 C.3     
  25 C25           -0.0858    -0.7706     1.2393 C.ar    
  26 C26           -0.3669    -2.1197     1.3455 C.ar    
  27 C27           -0.2851    -2.9327     0.2303 C.ar    
  28 C28            0.0773    -2.3964    -0.9909 C.ar    
  29 C29            0.3576    -1.0467    -1.0973 C.ar    
  30 C30            0.2694    -0.2327     0.0162 C.ar    
  31 F31          -12.3830     0.5438    -0.0703 F       
  32 H32           -1.8327    -2.5686     2.8302 H       
  33 H33           -0.5251    -3.7683     2.6913 H       
  34 H34           -0.2143    -2.1995     3.4726 H       
  35 H35          -14.2741     1.0793     1.6433 H       
  36 H36          -13.9268     1.8682     3.9478 H       
  37 H37          -10.0519     0.9634     1.0229 H       
  38 H38          -11.8036     2.5402     5.7911 H       
  39 H39           -8.1659     1.4110     2.2090 H       
  40 H40           -7.9814     3.8295     2.6592 H       
  41 H41           -7.5172     3.4944     4.3453 H       
  42 H42           -5.9771     2.6184     1.8593 H       
  43 H43           -5.5160     3.9404     2.9580 H       
  44 H44           -5.9221     0.3363     2.6379 H       
  45 H45           -5.4206    -0.0178     4.3084 H       
  46 H46           -7.4594     1.0960     5.1636 H       
  47 H47           -7.8838    -0.2189     4.0404 H       
  48 H48           -3.4735     2.9422     3.5313 H       
  49 H49           -3.3218     1.4416     5.4834 H       
  50 H50           -3.6739     0.0363     4.4481 H       
  51 H51           -1.2690     1.8973     4.1788 H       
  52 H52           -1.2389     0.2459     4.8418 H       
  53 H53           -1.7366     2.2426     1.8380 H       
  54 H54           -2.0500     0.8447     0.7818 H       
  55 H55           -4.1654     0.3992     1.9879 H       
  56 H56           -4.1513     2.0541     1.3309 H       
  57 H57            0.3269     1.0618     2.2523 H       
  58 H58            0.3060    -0.3771     3.2998 H       
  59 H59           -0.5041    -3.9870     0.3135 H       
  60 H60            0.1419    -3.0317    -1.8619 H       
  61 H61            0.6411    -0.6277    -2.0515 H       
  62 H62            0.4883     0.8216    -0.0670 H       
@<TRIPOS>BOND
   1    1   26 1
   2    1   32 1
   3    1   33 1
   4    1   34 1
   5    2    3 ar
   6    2   31 1
   7    2    7 ar
   8    3    4 ar
   9    3   35 1
  10    4    5 ar
  11    4   36 1
  12    5    6 ar
  13    5    8 1
  14    6    7 ar
  15    6   10 1
  16    7   37 1
  17    8    9 am
  18    8   38 1
  19    9   10 am
  20    9   17 2
  21   10   11 1
  22   11   12 1
  23   11   16 1
  24   11   39 1
  25   12   13 1
  26   12   40 1
  27   12   41 1
  28   13   14 1
  29   13   42 1
  30   13   43 1
  31   14   15 1
  32   14   18 1
  33   15   16 1
  34   15   44 1
  35   15   45 1
  36   16   46 1
  37   16   47 1
  38   18   19 1
  39   18   23 1
  40   18   48 1
  41   19   20 1
  42   19   49 1
  43   19   50 1
  44   20   21 1
  45   20   51 1
  46   20   52 1
  47   21   22 1
  48   21   24 1
  49   22   23 1
  50   22   53 1
  51   22   54 1
  52   23   55 1
  53   23   56 1
  54   24   25 1
  55   24   57 1
  56   24   58 1
  57   25   26 ar
  58   25   30 ar
  59   26   27 ar
  60   27   28 ar
  61   27   59 1
  62   28   29 ar
  63   28   60 1
  64   29   30 ar
  65   29   61 1
  66   30   62 1

#	End of record

