#	Name: ASD03092474
#	Creating user name:	WinNT
#	Creation time:	15. 06. 2019 20:32

#	Modifying user name:	WinNT
#	Modification time:	15. 06. 2019 20:32

#	Program:	/corina/corina34_cracker 3.40 0067  02.08.2006

@<TRIPOS>MOLECULE
ASD03092474
  55   58    0    0    0
SMALL
NO_CHARGES


@<TRIPOS>ATOM
   1 O1             0.8906     1.0032    -0.3454 O.3     
   2 N2             0.7499    -0.1961    -0.2858 N.2     
   3 C3             1.9051    -0.8120    -0.2408 C.2     
   4 C4             2.8976     0.2064    -0.2811 C.2     
   5 C5             2.1840     1.3541    -0.3481 C.2     
   6 C6             2.1324    -2.2757    -0.1634 C.2     
   7 O7             3.2652    -2.7135    -0.1273 O.2     
   8 N8             1.0824    -3.1201    -0.1332 N.am    
   9 C9             1.3069    -4.5658    -0.0568 C.3     
  10 S10           -2.1410    -6.4560     0.6760 S.3     
  11 C11           -1.8185    -6.1980    -0.9828 C.2     
  12 N12           -0.6847    -5.5812    -1.1308 N.2     
  13 C13           -0.0200    -5.2799    -0.0365 C.2     
  14 C14           -0.6269    -5.6643     1.1058 C.2     
  15 C15            0.3988    -6.2705     4.6673 C.ar    
  16 C16           -0.0903    -6.5081     3.4011 C.ar    
  17 C17           -0.1132    -5.4576     2.4739 C.ar    
  18 C18            0.3658    -4.2055     2.8819 C.ar    
  19 C19            0.8368    -4.0577     4.1685 C.ar    
  20 N20            0.8407    -5.0746     5.0104 N.ar    
  21 C21            1.3549    -2.7167     4.6207 C.3     
  22 C22            0.4235    -7.3894     5.6765 C.3     
  23 N23           -2.6461    -6.5903    -2.0191 N.3     
  24 C24           -3.8490    -7.2626    -1.5071 C.3     
  25 C25           -4.7056    -7.7319    -2.6861 C.3     
  26 O26           -5.0235    -6.6100    -3.5142 O.3     
  27 C27           -3.8751    -5.9319    -4.0306 C.3     
  28 C28           -3.0100    -5.4444    -2.8652 C.3     
  29 C29           -4.3237    -4.7339    -4.8699 C.3     
  30 C30           -5.9974    -8.3612    -2.1605 C.3     
  31 H31            3.9712     0.0905    -0.2620 H       
  32 H32            2.5798     2.3579    -0.3949 H       
  33 H33            0.1780    -2.7706    -0.1620 H       
  34 H34            1.8811    -4.8907    -0.9244 H       
  35 H35            1.8595    -4.8001     0.8531 H       
  36 H36           -0.4499    -7.4890     3.1274 H       
  37 H37            0.3663    -3.3693     2.1984 H       
  38 H38            0.5365    -2.1354     5.0453 H       
  39 H39            2.1276    -2.8615     5.3757 H       
  40 H40            1.7753    -2.1834     3.7681 H       
  41 H41            1.3717    -7.9222     5.6051 H       
  42 H42            0.3131    -6.9768     6.6793 H       
  43 H43           -0.3966    -8.0786     5.4749 H       
  44 H44           -3.5567    -8.1227    -0.9046 H       
  45 H45           -4.4224    -6.5665    -0.8949 H       
  46 H46           -4.1517    -8.4685    -3.2680 H       
  47 H47           -3.2970    -6.6162    -4.6516 H       
  48 H48           -3.5700    -4.7193    -2.2748 H       
  49 H49           -2.1053    -4.9772    -3.2541 H       
  50 H50           -4.8999    -4.0495    -4.2473 H       
  51 H51           -3.4480    -4.2175    -5.2632 H       
  52 H52           -4.9426    -5.0812    -5.6971 H       
  53 H53           -6.5513    -7.6231    -1.5804 H       
  54 H54           -6.6068    -8.6950    -3.0003 H       
  55 H55           -5.7544    -9.2137    -1.5263 H       
@<TRIPOS>BOND
   1    1    2 1
   2    1    5 1
   3    2    3 2
   4    3    4 1
   5    3    6 1
   6    4    5 2
   7    4   31 1
   8    5   32 1
   9    6    7 2
  10    6    8 am
  11    8    9 1
  12    8   33 1
  13    9   13 1
  14    9   34 1
  15    9   35 1
  16   10   11 1
  17   10   14 1
  18   11   12 2
  19   11   23 1
  20   12   13 1
  21   13   14 2
  22   14   17 1
  23   15   16 ar
  24   15   20 ar
  25   15   22 1
  26   16   17 ar
  27   16   36 1
  28   17   18 ar
  29   18   19 ar
  30   18   37 1
  31   19   20 ar
  32   19   21 1
  33   21   38 1
  34   21   39 1
  35   21   40 1
  36   22   41 1
  37   22   42 1
  38   22   43 1
  39   23   24 1
  40   23   28 1
  41   24   25 1
  42   24   44 1
  43   24   45 1
  44   25   26 1
  45   25   30 1
  46   25   46 1
  47   26   27 1
  48   27   28 1
  49   27   29 1
  50   27   47 1
  51   28   48 1
  52   28   49 1
  53   29   50 1
  54   29   51 1
  55   29   52 1
  56   30   53 1
  57   30   54 1
  58   30   55 1

#	End of record

