#	Name: ASD01883157
#	Creating user name:	WinNT
#	Creation time:	15. 06. 2019 19:45

#	Modifying user name:	WinNT
#	Modification time:	15. 06. 2019 19:45

#	Program:	/corina/corina34_cracker 3.40 0067  02.08.2006

@<TRIPOS>MOLECULE
ASD01883157
  48   49    0    0    0
SMALL
NO_CHARGES


@<TRIPOS>ATOM
   1 N1            -0.0193     1.3474     0.0069 N.am    
   2 C2             0.0000     0.0016     0.0087 C.2     
   3 C3            -1.2176    -0.7226     0.0177 C.2     
   4 C4            -2.4282    -0.0073     0.0246 C.2     
   5 C5            -2.3818     1.4007     0.0222 C.2     
   6 C6            -1.1888     2.0373     0.0187 C.2     
   7 O7             1.0641    -0.5935     0.0023 O.2     
   8 C8            -1.2154    -2.1546     0.0193 C.1     
   9 N9            -1.2137    -3.2906     0.0206 N.1     
  10 C10            1.2475     2.0831    -0.0019 C.3     
  11 C11            1.6797     2.3371    -1.4475 C.3     
  12 C12            3.0028     3.1054    -1.4567 C.3     
  13 C13            4.1040     2.2319    -0.8525 C.3     
  14 C14            3.3718     3.4682    -2.8965 C.3     
  15 C15           -3.7234    -0.7185     0.0335 C.ar    
  16 C16           -4.5762    -0.6065     1.1344 C.ar    
  17 C17           -5.7827    -1.2711     1.1389 C.ar    
  18 C18           -6.1518    -2.0525     0.0506 C.ar    
  19 C19           -5.3061    -2.1668    -1.0461 C.ar    
  20 C20           -4.1009    -1.5000    -1.0612 C.ar    
  21 O21           -7.3417    -2.7063     0.0591 O.3     
  22 C22           -8.1082    -2.6430     1.2635 C.3     
  23 C23           -8.9464    -1.3631     1.2678 C.3     
  24 C24           -9.0334    -3.8589     1.3437 C.3     
  25 H25           -3.2987     1.9714     0.0273 H       
  26 H26           -1.1657     3.1171     0.0169 H       
  27 H27            1.1179     3.0359     0.5113 H       
  28 H28            2.0118     1.4966     0.5081 H       
  29 H29            1.8093     1.3843    -1.9607 H       
  30 H30            0.9154     2.9235    -1.9575 H       
  31 H31            2.8978     4.0167    -0.8679 H       
  32 H32            4.2090     1.3206    -1.4413 H       
  33 H33            5.0466     2.7792    -0.8591 H       
  34 H34            3.8411     1.9734     0.1732 H       
  35 H35            2.5873     4.0905    -3.3269 H       
  36 H36            4.3144     4.0155    -2.9031 H       
  37 H37            3.4768     2.5569    -3.4853 H       
  38 H38           -4.2898    -0.0000     1.9808 H       
  39 H39           -6.4426    -1.1850     1.9896 H       
  40 H40           -5.5963    -2.7753    -1.8899 H       
  41 H41           -3.4443    -1.5891    -1.9140 H       
  42 H42           -7.4365    -2.6402     2.1219 H       
  43 H43           -9.6181    -1.3658     0.4093 H       
  44 H44           -9.5311    -1.3147     2.1864 H       
  45 H45           -8.2873    -0.4968     1.2106 H       
  46 H46           -8.4361    -4.7707     1.3406 H       
  47 H47           -9.6180    -3.8106     2.2623 H       
  48 H48           -9.7051    -3.8616     0.4852 H       
@<TRIPOS>BOND
   1    1    2 am
   2    1   10 1
   3    1    6 1
   4    2    3 1
   5    2    7 2
   6    3    4 2
   7    3    8 1
   8    4    5 1
   9    4   15 1
  10    5    6 2
  11    5   25 1
  12    6   26 1
  13    8    9 3
  14   10   11 1
  15   10   27 1
  16   10   28 1
  17   11   12 1
  18   11   29 1
  19   11   30 1
  20   12   13 1
  21   12   14 1
  22   12   31 1
  23   13   32 1
  24   13   33 1
  25   13   34 1
  26   14   35 1
  27   14   36 1
  28   14   37 1
  29   15   16 ar
  30   15   20 ar
  31   16   17 ar
  32   16   38 1
  33   17   18 ar
  34   17   39 1
  35   18   19 ar
  36   18   21 1
  37   19   20 ar
  38   19   40 1
  39   20   41 1
  40   21   22 1
  41   22   23 1
  42   22   24 1
  43   22   42 1
  44   23   43 1
  45   23   44 1
  46   23   45 1
  47   24   46 1
  48   24   47 1
  49   24   48 1

#	End of record

