#	Name: ASD01820064
#	Creating user name:	WinNT
#	Creation time:	15. 06. 2019 19:36

#	Modifying user name:	WinNT
#	Modification time:	15. 06. 2019 19:36

#	Program:	/corina/corina34_cracker 3.40 0067  02.08.2006

@<TRIPOS>MOLECULE
ASD01820064
  88   93    0    0    0
SMALL
NO_CHARGES


@<TRIPOS>ATOM
   1 C1            -0.0167     1.3781     0.0096 C.ar    
   2 C2             0.0021    -0.0041     0.0020 C.ar    
   3 C3             1.2063    -0.6904    -0.0127 C.ar    
   4 C4             2.3989     0.0151    -0.0203 C.ar    
   5 C5             2.3798     1.4244    -0.0130 C.ar    
   6 C6             1.1684     2.0970     0.0022 C.ar    
   7 C7             3.8260    -0.3700    -0.0355 C.2     
   8 N8             4.5720     0.7494    -0.0368 N.am    
   9 C9             3.7959     1.8481    -0.0241 C.2     
  10 O10            4.1923     2.9960    -0.0228 O.2     
  11 O11            4.2534    -1.5068    -0.0446 O.2     
  12 C12            8.0638     0.8038    -1.5099 C.3     
  13 O13            8.5282     0.8166    -2.8613 O.3     
  14 N14            9.9386     0.8363    -2.9855 N.2     
  15 C15           10.4843     0.8494    -4.1574 C.2     
  16 C16           11.9557     0.8700    -4.2870 C.ar    
  17 C17           12.5670     0.8843    -5.5461 C.ar    
  18 C18           13.9448     0.9033    -5.6205 C.ar    
  19 N19           14.6823     0.9080    -4.5270 N.ar    
  20 C20           14.1473     0.8945    -3.3214 C.ar    
  21 C21           12.7776     0.8815    -3.1539 C.ar    
  22 C22           16.1415     0.9284    -4.6554 C.3     
  23 C23           16.6300     2.3778    -4.6932 C.3     
  24 C24           18.1539     2.3991    -4.8273 C.3     
  25 N25           20.1016     3.8688    -4.9935 N.ar    
  26 C26           20.6366     3.8819    -6.1991 C.ar    
  27 C27           22.0061     3.9070    -6.3665 C.ar    
  28 C28           22.8280     3.9185    -5.2335 C.ar    
  29 C29           22.2167     3.9039    -3.9743 C.ar    
  30 C30           20.8391     3.8790    -3.8999 C.ar    
  31 C31           24.2994     3.9448    -5.3630 C.2     
  32 N32           25.0414     3.9552    -4.3044 N.2     
  33 O33           26.4517     3.9804    -4.4285 O.3     
  34 C34           27.1451     3.9893    -3.1790 C.3     
  35 N35           30.8404     4.0524    -2.3386 N.am    
  36 C36           31.5713     5.1750    -2.4620 C.2     
  37 C37           32.9813     4.7960    -2.6928 C.ar    
  38 C38           33.0068     3.3867    -2.6928 C.ar    
  39 C39           31.6115     2.9570    -2.4621 C.2     
  40 C40           34.1550     5.5064    -2.8874 C.ar    
  41 C41           35.3465     4.8252    -3.0809 C.ar    
  42 C42           35.3715     3.4431    -3.0810 C.ar    
  43 C43           34.2053     2.7192    -2.8879 C.ar    
  44 O44           31.1441     6.3099    -2.3955 O.2     
  45 O45           31.2257     1.8073    -2.3953 O.2     
  46 C46           18.6424     3.8485    -4.8651 C.3     
  47 C47            6.5340     0.7830    -1.4966 C.3     
  48 C48            6.0368     0.7693    -0.0497 C.3     
  49 C49           28.6536     4.0166    -3.4331 C.3     
  50 C50           29.3960     4.0262    -2.0953 C.3     
  51 H51           -0.9613     1.9015     0.0169 H       
  52 H52           -0.9280    -0.5530     0.0079 H       
  53 H53            1.2149    -1.7703    -0.0179 H       
  54 H54            1.1477     3.1767     0.0074 H       
  55 H55            8.4437    -0.0835    -1.0036 H       
  56 H56            8.4196     1.6962    -0.9950 H       
  57 H57            9.8643     0.8452    -5.0418 H       
  58 H58           11.9694     0.8802    -6.4457 H       
  59 H59           14.4258     0.9141    -6.5874 H       
  60 H60           14.7899     0.8983    -2.4534 H       
  61 H61           12.3465     0.8704    -2.1638 H       
  62 H62           16.5884     0.4164    -3.8032 H       
  63 H63           16.4323     0.4229    -5.5763 H       
  64 H64           16.1830     2.8898    -5.5454 H       
  65 H65           16.3392     2.8833    -3.7723 H       
  66 H66           18.6009     1.8871    -3.9751 H       
  67 H67           18.4447     1.8936    -5.7482 H       
  68 H68           19.9941     3.8725    -7.0671 H       
  69 H69           22.4373     3.9172    -7.3567 H       
  70 H70           22.8143     3.9121    -3.0747 H       
  71 H71           20.3580     3.8676    -2.9330 H       
  72 H72           24.7552     3.9555    -6.3420 H       
  73 H73           26.8565     4.8729    -2.6097 H       
  74 H74           26.8879     3.0932    -2.6144 H       
  75 H75           34.1413     6.5863    -2.8887 H       
  76 H76           36.2617     5.3781    -3.2331 H       
  77 H77           36.3062     2.9237    -3.2328 H       
  78 H78           34.2308     1.6396    -2.8890 H       
  79 H79           18.1955     4.3604    -5.7173 H       
  80 H80           18.3517     4.3540    -3.9442 H       
  81 H81            6.1541     1.6704    -2.0029 H       
  82 H82            6.1783    -0.1094    -2.0115 H       
  83 H83            6.3926     1.6617     0.4652 H       
  84 H84            6.4167    -0.1181     0.4567 H       
  85 H85           28.9422     3.1331    -4.0025 H       
  86 H86           28.9108     4.9128    -3.9978 H       
  87 H87           29.1388     3.1301    -1.5306 H       
  88 H88           29.1074     4.9097    -1.5259 H       
@<TRIPOS>BOND
   1    1    2 ar
   2    1    6 ar
   3    1   51 1
   4    2    3 ar
   5    2   52 1
   6    3    4 ar
   7    3   53 1
   8    4    5 ar
   9    4    7 1
  10    5    6 ar
  11    5    9 1
  12    6   54 1
  13    7    8 am
  14    7   11 2
  15    8    9 am
  16    8   48 1
  17    9   10 2
  18   12   13 1
  19   12   47 1
  20   12   55 1
  21   12   56 1
  22   13   14 1
  23   14   15 2
  24   15   16 1
  25   15   57 1
  26   16   17 ar
  27   16   21 ar
  28   17   18 ar
  29   17   58 1
  30   18   19 ar
  31   18   59 1
  32   19   20 ar
  33   19   22 1
  34   20   21 ar
  35   20   60 1
  36   21   61 1
  37   22   23 1
  38   22   62 1
  39   22   63 1
  40   23   24 1
  41   23   64 1
  42   23   65 1
  43   24   46 1
  44   24   66 1
  45   24   67 1
  46   25   26 ar
  47   25   30 ar
  48   25   46 1
  49   26   27 ar
  50   26   68 1
  51   27   28 ar
  52   27   69 1
  53   28   29 ar
  54   28   31 1
  55   29   30 ar
  56   29   70 1
  57   30   71 1
  58   31   32 2
  59   31   72 1
  60   32   33 1
  61   33   34 1
  62   34   49 1
  63   34   73 1
  64   34   74 1
  65   35   36 am
  66   35   39 am
  67   35   50 1
  68   36   37 1
  69   36   44 2
  70   37   38 ar
  71   37   40 ar
  72   38   39 1
  73   38   43 ar
  74   39   45 2
  75   40   41 ar
  76   40   75 1
  77   41   42 ar
  78   41   76 1
  79   42   43 ar
  80   42   77 1
  81   43   78 1
  82   46   79 1
  83   46   80 1
  84   47   48 1
  85   47   81 1
  86   47   82 1
  87   48   83 1
  88   48   84 1
  89   49   50 1
  90   49   85 1
  91   49   86 1
  92   50   87 1
  93   50   88 1

#	End of record

