#	Name: ASD01810993
#	Creating user name:	WinNT
#	Creation time:	15. 06. 2019 19:25

#	Modifying user name:	WinNT
#	Modification time:	15. 06. 2019 19:25

#	Program:	/corina/corina34_cracker 3.40 0067  02.08.2006

@<TRIPOS>MOLECULE
ASD01810993
  63   66    0    0    0
SMALL
NO_CHARGES


@<TRIPOS>ATOM
   1 C1            -7.3570     2.2254    -3.9971 C.1     
   2 C2            -6.3760     3.0160    -3.3165 C.ar    
   3 C3            -5.2072     2.4223    -2.8359 C.ar    
   4 C4            -4.2664     3.1899    -2.1812 C.ar    
   5 C5            -4.4791     4.5450    -1.9999 C.ar    
   6 C6            -5.6353     5.1397    -2.4732 C.ar    
   7 C7            -6.5813     4.3853    -3.1356 C.ar    
   8 N8            -8.1352     1.5982    -4.5369 N.1     
   9 N9            -2.4213     7.7924    -0.2279 N.am    
  10 C10           -1.8686     7.3012    -1.4975 C.3     
  11 C11           -2.9423     6.4792    -2.2174 C.3     
  12 C12           -3.4470     5.3770    -1.2833 C.3     
  13 C13           -4.0756     6.0086    -0.0391 C.3     
  14 C14           -3.0147     6.8253     0.7055 C.3     
  15 C15           -2.3796     9.1045     0.0772 C.2     
  16 C16           -3.0220     9.5966     1.3148 C.ar    
  17 C17           -3.9802    10.6109     1.2505 C.ar    
  18 C18           -4.5809    11.0713     2.4050 C.ar    
  19 C19           -4.2398    10.5330     3.6302 C.ar    
  20 C20           -3.2839     9.5183     3.7087 C.ar    
  21 C21           -2.6772     9.0456     2.5470 C.ar    
  22 O22           -1.8138     9.8834    -0.6649 O.2     
  23 C23           -4.9004    11.0423     4.8853 C.3     
  24 C24           -4.3587    11.2043    -0.0821 C.3     
  25 N25           -2.8705     8.5838     7.1172 N.2     
  26 N26           -3.4119     9.2885     6.1887 N.2     
  27 C27           -2.9195     8.9434     5.0218 C.2     
  28 N28           -2.0017     7.9467     5.2509 N.pl3   
  29 C29           -2.0017     7.7482     6.5997 C.2     
  30 O30           -1.2446     6.8538     7.2796 O.3     
  31 C31           -1.4059     6.8135     8.6989 C.3     
  32 C32           -0.4758     5.7510     9.2879 C.3     
  33 O33            0.8835     6.1357     9.0727 O.3     
  34 C34            1.8391     5.2064     9.5878 C.3     
  35 H35           -5.0402     1.3646    -2.9761 H       
  36 H36           -3.3619     2.7320    -1.8089 H       
  37 H37           -5.7951     6.1979    -2.3281 H       
  38 H38           -7.4811     4.8516    -3.5088 H       
  39 H39           -1.5769     8.1467    -2.1205 H       
  40 H40           -0.9997     6.6737    -1.2994 H       
  41 H41           -3.7723     7.1287    -2.4954 H       
  42 H42           -2.5158     6.0292    -3.1139 H       
  43 H43           -2.6120     4.7426    -0.9858 H       
  44 H44           -4.8949     6.6626    -0.3376 H       
  45 H45           -4.4557     5.2238     0.6148 H       
  46 H46           -2.2393     6.1590     1.0833 H       
  47 H47           -3.4792     7.3568     1.5361 H       
  48 H48           -5.3207    11.8563     2.3499 H       
  49 H49           -1.9402     8.2581     2.6019 H       
  50 H50           -5.8001    10.4600     5.0843 H       
  51 H51           -4.2113    10.9442     5.7241 H       
  52 H52           -5.1677    12.0910     4.7554 H       
  53 H53           -5.1274    10.5884    -0.5489 H       
  54 H54           -4.7421    12.2139     0.0655 H       
  55 H55           -3.4805    11.2397    -0.7267 H       
  56 H56           -1.4652     7.4813     4.5903 H       
  57 H57           -1.1579     7.7876     9.1206 H       
  58 H58           -2.4396     6.5656     8.9402 H       
  59 H59           -0.6621     5.6579    10.3579 H       
  60 H60           -0.6638     4.7937     8.8018 H       
  61 H61            2.8461     5.5705     9.3844 H       
  62 H62            1.7009     5.1020    10.6639 H       
  63 H63            1.6991     4.2378     9.1078 H       
@<TRIPOS>BOND
   1    1    2 1
   2    1    8 3
   3    2    3 ar
   4    2    7 ar
   5    3    4 ar
   6    3   35 1
   7    4    5 ar
   8    4   36 1
   9    5    6 ar
  10    5   12 1
  11    6    7 ar
  12    6   37 1
  13    7   38 1
  14    9   10 1
  15    9   14 1
  16    9   15 am
  17   10   11 1
  18   10   39 1
  19   10   40 1
  20   11   12 1
  21   11   41 1
  22   11   42 1
  23   12   13 1
  24   12   43 1
  25   13   14 1
  26   13   44 1
  27   13   45 1
  28   14   46 1
  29   14   47 1
  30   15   16 1
  31   15   22 2
  32   16   17 ar
  33   16   21 ar
  34   17   18 ar
  35   17   24 1
  36   18   19 ar
  37   18   48 1
  38   19   20 ar
  39   19   23 1
  40   20   21 ar
  41   20   27 1
  42   21   49 1
  43   23   50 1
  44   23   51 1
  45   23   52 1
  46   24   53 1
  47   24   54 1
  48   24   55 1
  49   25   26 1
  50   25   29 2
  51   26   27 2
  52   27   28 1
  53   28   29 1
  54   28   56 1
  55   29   30 1
  56   30   31 1
  57   31   32 1
  58   31   57 1
  59   31   58 1
  60   32   33 1
  61   32   59 1
  62   32   60 1
  63   33   34 1
  64   34   61 1
  65   34   62 1
  66   34   63 1

#	End of record

