#	Name: ASD01948234
#	Creating user name:	WinNT
#	Creation time:	15. 06. 2019 20:14

#	Modifying user name:	WinNT
#	Modification time:	15. 06. 2019 20:14

#	Program:	/corina/corina34_cracker 3.40 0067  02.08.2006

@<TRIPOS>MOLECULE
ASD01948234
  30   31    0    0    0
SMALL
NO_CHARGES


@<TRIPOS>ATOM
   1 C1            -0.0318     1.3230    -0.1290 C.ar    
   2 C2            -0.0413    -0.0501    -0.3068 C.ar    
   3 C3            -1.2450    -0.7356    -0.3678 C.ar    
   4 C4            -2.4452    -0.0436    -0.2497 C.ar    
   5 C5            -2.4342     1.3374    -0.0704 C.ar    
   6 C6            -1.2244     2.0171    -0.0055 C.ar    
   7 N7            -3.6657    -0.7357    -0.3116 N.pl3   
   8 C8            -3.8809     4.2789     0.9188 C.ar    
   9 C9            -3.6686     3.4233    -0.1535 C.ar    
  10 N10           -3.6415     2.0396     0.0487 N.pl3   
  11 C11           -3.9076     5.6456     0.7162 C.ar    
  12 C12           -3.7235     6.1624    -0.5535 C.ar    
  13 C13           -3.5110     5.3132    -1.6257 C.ar    
  14 C14           -3.4831     3.9452    -1.4299 C.ar    
  15 F15           -1.2111     3.3568     0.1684 F       
  16 F16            1.1435     1.9868    -0.0702 F       
  17 F17           -3.2756     3.1161    -2.4763 F       
  18 Br18          -3.7623     8.0334    -0.8252 Br      
  19 O19           -1.2517    -2.0847    -0.5435 O.3     
  20 C20            0.0179    -2.7304    -0.6576 C.3     
  21 H21            0.8906    -0.5881    -0.3986 H       
  22 H22           -3.6721    -1.6976    -0.4368 H       
  23 H23           -4.5024    -0.2518    -0.2291 H       
  24 H24           -4.0296     3.8766     1.9099 H       
  25 H25           -4.4582     1.5660     0.2713 H       
  26 H26           -4.0729     6.3112     1.5505 H       
  27 H27           -3.3676     5.7198    -2.6159 H       
  28 H28            0.5554    -2.3260    -1.5154 H       
  29 H29            0.5971    -2.5560     0.2492 H       
  30 H30           -0.1302    -3.8017    -0.7938 H       
@<TRIPOS>BOND
   1    1    2 ar
   2    1   16 1
   3    1    6 ar
   4    2    3 ar
   5    2   21 1
   6    3    4 ar
   7    3   19 1
   8    4    5 ar
   9    4    7 1
  10    5    6 ar
  11    5   10 1
  12    6   15 1
  13    7   22 1
  14    7   23 1
  15    8    9 ar
  16    8   11 ar
  17    8   24 1
  18    9   10 1
  19    9   14 ar
  20   10   25 1
  21   11   12 ar
  22   11   26 1
  23   12   13 ar
  24   12   18 1
  25   13   14 ar
  26   13   27 1
  27   14   17 1
  28   19   20 1
  29   20   28 1
  30   20   29 1
  31   20   30 1

#	End of record

