#	Name: ASD01911290
#	Creating user name:	WinNT
#	Creation time:	15. 06. 2019 19:57

#	Modifying user name:	WinNT
#	Modification time:	15. 06. 2019 19:57

#	Program:	/corina/corina34_cracker 3.40 0067  02.08.2006

@<TRIPOS>MOLECULE
ASD01911290
  29   31    0    0    0
SMALL
NO_CHARGES


@<TRIPOS>ATOM
   1 C1            -0.0167     1.3796     0.0096 C.ar    
   2 C2             0.0021    -0.0041     0.0020 C.ar    
   3 C3             1.2058    -0.6866    -0.0131 C.ar    
   4 C4             2.3967     0.0089    -0.0203 C.ar    
   5 C5             2.3858     1.4065    -0.0127 C.ar    
   6 C6             1.1661     2.0888     0.0021 C.ar    
   7 C7             3.6181     2.1357    -0.0195 C.1     
   8 C8             4.6285     2.7336    -0.0252 C.1     
   9 C9             5.8609     3.4628    -0.0321 C.ar    
  10 C10            5.8418     4.8573    -0.0244 C.ar    
  11 C11            7.0369     5.5595    -0.0306 C.ar    
  12 C12            8.2526     4.8527    -0.0446 C.ar    
  13 C13            8.2597     3.4564    -0.0526 C.ar    
  14 C14            7.0808     2.7710    -0.0406 C.ar    
  15 O15            7.0481     6.9086    -0.0239 O.3     
  16 C16            8.1835     7.6157    -0.0301 C.2     
  17 C17            9.3998     7.0419    -0.0433 C.2     
  18 C18            9.5083     5.6257    -0.0509 C.2     
  19 O19           10.5948     5.0721    -0.0626 O.2     
  20 H20           -0.9600     1.9055     0.0169 H       
  21 H21           -0.9274    -0.5541     0.0083 H       
  22 H22            1.2127    -1.7665    -0.0190 H       
  23 H23            3.3354    -0.5250    -0.0314 H       
  24 H24            1.1500     3.1686     0.0081 H       
  25 H25            4.9009     5.3873    -0.0140 H       
  26 H26            9.1971     2.9203    -0.0637 H       
  27 H27            7.0865     1.6911    -0.0469 H       
  28 H28            8.1208     8.6938    -0.0245 H       
  29 H29           10.2892     7.6546    -0.0482 H       
@<TRIPOS>BOND
   1    1    2 ar
   2    1    6 ar
   3    1   20 1
   4    2    3 ar
   5    2   21 1
   6    3    4 ar
   7    3   22 1
   8    4    5 ar
   9    4   23 1
  10    5    6 ar
  11    5    7 1
  12    6   24 1
  13    7    8 3
  14    8    9 1
  15    9   10 ar
  16    9   14 ar
  17   10   11 ar
  18   10   25 1
  19   11   12 ar
  20   11   15 1
  21   12   13 ar
  22   12   18 1
  23   13   14 ar
  24   13   26 1
  25   14   27 1
  26   15   16 1
  27   16   17 2
  28   16   28 1
  29   17   18 1
  30   17   29 1
  31   18   19 2

#	End of record

