#	Name: ASD09800059
#	Creating user name:	WinNT
#	Creation time:	15. 06. 2019 21:24

#	Modifying user name:	WinNT
#	Modification time:	15. 06. 2019 21:24

#	Program:	/corina/corina34_cracker 3.40 0067  02.08.2006

@<TRIPOS>MOLECULE
ASD09800059
  70   73    0    0    0
SMALL
NO_CHARGES


@<TRIPOS>ATOM
   1 C1            -0.2785     1.3681    -0.0225 C.ar    
   2 C2             0.2061     0.1193    -0.3909 C.ar    
   3 C3             1.0603    -0.5641     0.4516 C.ar    
   4 C4             1.4332    -0.0070     1.6614 C.ar    
   5 C5             0.9527     1.2357     2.0311 C.ar    
   6 C6             0.0983     1.9249     1.1928 C.ar    
   7 P7            -0.2832    -0.6128    -1.9768 P.3     
   8 C8             0.7329    -2.0907    -2.3031 C.3     
   9 C9            -2.0421    -1.0873    -1.9101 C.3     
  10 O10           -0.0795     0.3749    -3.0600 O.2     
  11 N11           -1.1389     2.0652    -0.8756 N.pl3   
  12 C12           -1.1307     3.4521    -0.8868 C.ar    
  13 C13           -0.2125     5.4515    -0.1982 C.ar    
  14 N14           -0.2227     4.1267    -0.1894 N.ar    
  15 C15           -2.0738     4.1607    -1.6363 C.ar    
  16 C16           -2.0275     5.5416    -1.6174 C.ar    
  17 N17           -1.0973     6.1491    -0.8948 N.ar    
  18 N18            0.7472     6.1240     0.5399 N.pl3   
  19 C19            0.7629     7.5272     0.5576 C.ar    
  20 C20            1.9867     9.5940     0.6694 C.ar    
  21 C21            1.9736     8.2093     0.6526 C.ar    
  22 C22           -0.4267     8.2355     0.4747 C.ar    
  23 C23           -0.4121     9.6171     0.4911 C.ar    
  24 C24            0.7934    10.2994     0.5910 C.ar    
  25 N25            0.8056    11.6986     0.6084 N.3     
  26 C26           -0.5570    12.2380     0.5158 C.3     
  27 C27           -0.4964    13.7621     0.3910 C.3     
  28 C28            0.2199    14.3414     1.6141 C.3     
  29 C29            1.6189    13.7271     1.7149 C.3     
  30 C30            1.4969    12.2040     1.8013 C.3     
  31 O31            3.1412     7.5165     0.7292 O.3     
  32 C32            4.3444     8.2814     0.8251 C.3     
  33 N33            0.3329    15.7991     1.4720 N.3     
  34 C34            0.9091    16.4027     2.6810 C.3     
  35 C35            1.1178    16.1528     0.2817 C.3     
  36 Cl36          -3.2755     3.3253    -2.5700 Cl      
  37 H37            1.4374    -1.5349     0.1658 H       
  38 H38            2.1009    -0.5439     2.3188 H       
  39 H39            1.2456     1.6677     2.9766 H       
  40 H40           -0.2764     2.8957     1.4821 H       
  41 H41            0.5829    -2.8182    -1.5054 H       
  42 H42            0.4389    -2.5307    -3.2561 H       
  43 H43            1.7846    -1.8070    -2.3430 H       
  44 H44           -2.6497    -0.2037    -1.7150 H       
  45 H45           -2.3361    -1.5273    -2.8630 H       
  46 H46           -2.1922    -1.8148    -1.1124 H       
  47 H47           -1.7416     1.5790    -1.4597 H       
  48 H48           -2.7413     6.1196    -2.1857 H       
  49 H49            1.4084     5.6252     1.0447 H       
  50 H50            2.9244    10.1247     0.7433 H       
  51 H51           -1.3652     7.7067     0.3969 H       
  52 H52           -1.3392    10.1671     0.4258 H       
  53 H53           -1.0538    11.8213    -0.3604 H       
  54 H54           -1.1158    11.9690     1.4122 H       
  55 H55            0.0504    14.0317    -0.5126 H       
  56 H56           -1.5084    14.1634     0.3380 H       
  57 H57           -0.3474    14.1050     2.5143 H       
  58 H58            2.1989    13.9962     0.8322 H       
  59 H59            2.1181    14.1035     2.6078 H       
  60 H60            0.9285    11.9352     2.6917 H       
  61 H61            2.4919    11.7627     1.8588 H       
  62 H62            4.4399     8.9200    -0.0531 H       
  63 H63            4.3114     8.8997     1.7221 H       
  64 H64            5.1998     7.6080     0.8793 H       
  65 H65            1.9030    15.9904     2.8547 H       
  66 H66            0.9815    17.4823     2.5489 H       
  67 H67            0.2702    16.1834     3.5365 H       
  68 H68            0.6306    15.7518    -0.6071 H       
  69 H69            1.1858    17.2376     0.2005 H       
  70 H70            2.1193    15.7314     0.3685 H       
@<TRIPOS>BOND
   1    1    2 ar
   2    1    6 ar
   3    1   11 1
   4    2    3 ar
   5    2    7 1
   6    3    4 ar
   7    3   37 1
   8    4    5 ar
   9    4   38 1
  10    5    6 ar
  11    5   39 1
  12    6   40 1
  13    7    8 1
  14    7    9 1
  15    7   10 2
  16    8   41 1
  17    8   42 1
  18    8   43 1
  19    9   44 1
  20    9   45 1
  21    9   46 1
  22   11   12 1
  23   11   47 1
  24   12   15 ar
  25   12   14 ar
  26   13   14 ar
  27   13   17 ar
  28   13   18 1
  29   15   16 ar
  30   15   36 1
  31   16   17 ar
  32   16   48 1
  33   18   19 1
  34   18   49 1
  35   19   22 ar
  36   19   21 ar
  37   20   21 ar
  38   20   24 ar
  39   20   50 1
  40   21   31 1
  41   22   23 ar
  42   22   51 1
  43   23   24 ar
  44   23   52 1
  45   24   25 1
  46   25   26 1
  47   25   30 1
  48   26   27 1
  49   26   53 1
  50   26   54 1
  51   27   28 1
  52   27   55 1
  53   27   56 1
  54   28   29 1
  55   28   33 1
  56   28   57 1
  57   29   30 1
  58   29   58 1
  59   29   59 1
  60   30   60 1
  61   30   61 1
  62   31   32 1
  63   32   62 1
  64   32   63 1
  65   32   64 1
  66   33   34 1
  67   33   35 1
  68   34   65 1
  69   34   66 1
  70   34   67 1
  71   35   68 1
  72   35   69 1
  73   35   70 1

#	End of record

