#	Name: ASD03730290
#	Creating user name:	WinNT
#	Creation time:	15. 06. 2019 20:44

#	Modifying user name:	WinNT
#	Modification time:	15. 06. 2019 20:44

#	Program:	/corina/corina34_cracker 3.40 0067  02.08.2006

@<TRIPOS>MOLECULE
ASD03730290
  60   65    0    0    0
SMALL
NO_CHARGES


@<TRIPOS>ATOM
   1 O1            -0.4557     1.1392     1.2956 O.3     
   2 C2            -0.3867    -0.2972     1.3689 C.3     
   3 O3             0.6977    -0.6335     0.4835 O.3     
   4 C4             1.5174     0.4587     0.4783 C.ar    
   5 C5             0.8069     1.5489     0.9756 C.ar    
   6 C6             2.8346     0.6129     0.0849 C.ar    
   7 C7             3.4575     1.8538     0.1778 C.ar    
   8 C8             2.7344     2.9380     0.6659 C.ar    
   9 C9             1.4232     2.7857     1.0661 C.ar    
  10 O10            4.7351     2.2135    -0.1361 O.3     
  11 C11            3.6575     4.1259     0.6162 C.3     
  12 C12            4.8019     3.6447    -0.2864 C.3     
  13 N13            3.0868     6.3037     1.0078 N.am    
  14 C14            2.9834     5.3481     0.0626 C.2     
  15 C15            4.1483     4.5245     1.9762 C.ar    
  16 C16            4.8428     3.8601     2.9775 C.ar    
  17 C17            5.1583     4.5263     4.1612 C.ar    
  18 C18            4.7767     5.8429     4.3277 C.ar    
  19 C19            4.0869     6.5031     3.3313 C.ar    
  20 C20            3.7657     5.8508     2.1422 C.ar    
  21 O21            2.4509     5.4547    -1.0219 O.2     
  22 C22            2.5505     7.6592     0.8626 C.3     
  23 C23            1.1138     7.6981     1.3873 C.3     
  24 C24            0.5536     9.1137     1.2355 C.3     
  25 C25           -0.8831     9.1527     1.7602 C.3     
  26 C26           -1.4433    10.5683     1.6085 C.3     
  27 C27            6.1417     2.0932     1.7796 C.ar    
  28 C28            5.2478     2.4448     2.7892 C.ar    
  29 C29            4.7395     1.4453     3.6213 C.ar    
  30 C30            5.1505     0.1361     3.4038 C.ar    
  31 C31            6.0442    -0.1305     2.3760 C.ar    
  32 N32            6.5043     0.8385     1.6090 N.ar    
  33 O33            4.6835    -0.8710     4.1881 O.3     
  34 C34            5.1541    -2.1891     3.9000 C.3     
  35 H35           -0.1640    -0.6185     2.3864 H       
  36 H36           -1.3180    -0.7436     1.0205 H       
  37 H37            3.3833    -0.2355    -0.2966 H       
  38 H38            0.8758     3.6333     1.4511 H       
  39 H39            5.7599     4.0269     0.0661 H       
  40 H40            4.6258     3.9340    -1.3224 H       
  41 H41            5.6984     4.0148     4.9442 H       
  42 H42            5.0194     6.3596     5.2445 H       
  43 H43            3.7939     7.5327     3.4740 H       
  44 H44            3.1646     8.3560     1.4330 H       
  45 H45            2.5608     7.9432    -0.1898 H       
  46 H46            0.4996     7.0013     0.8168 H       
  47 H47            1.1035     7.4141     2.4396 H       
  48 H48            1.1677     9.8106     1.8059 H       
  49 H49            0.5639     9.3977     0.1832 H       
  50 H50           -1.4972     8.4558     1.1898 H       
  51 H51           -0.8934     8.8687     2.8125 H       
  52 H52           -2.4668    10.5960     1.9823 H       
  53 H53           -0.8292    11.2652     2.1789 H       
  54 H54           -1.4330    10.8523     0.5562 H       
  55 H55            6.5379     2.8571     1.1270 H       
  56 H56            4.0453     1.6838     4.4135 H       
  57 H57            6.3678    -1.1461     2.2021 H       
  58 H58            6.2390    -2.2178     4.0016 H       
  59 H59            4.7051    -2.8958     4.5978 H       
  60 H60            4.8773    -2.4591     2.8809 H       
@<TRIPOS>BOND
   1    1    2 1
   2    1    5 1
   3    2    3 1
   4    2   35 1
   5    2   36 1
   6    3    4 1
   7    4    5 ar
   8    4    6 ar
   9    5    9 ar
  10    6    7 ar
  11    6   37 1
  12    7    8 ar
  13    7   10 1
  14    8    9 ar
  15    8   11 1
  16    9   38 1
  17   10   12 1
  18   11   12 1
  19   11   14 1
  20   11   15 1
  21   12   39 1
  22   12   40 1
  23   13   14 am
  24   13   20 1
  25   13   22 1
  26   14   21 2
  27   15   16 ar
  28   15   20 ar
  29   16   17 ar
  30   16   28 1
  31   17   18 ar
  32   17   41 1
  33   18   19 ar
  34   18   42 1
  35   19   20 ar
  36   19   43 1
  37   22   23 1
  38   22   44 1
  39   22   45 1
  40   23   24 1
  41   23   46 1
  42   23   47 1
  43   24   25 1
  44   24   48 1
  45   24   49 1
  46   25   26 1
  47   25   50 1
  48   25   51 1
  49   26   52 1
  50   26   53 1
  51   26   54 1
  52   27   28 ar
  53   27   32 ar
  54   27   55 1
  55   28   29 ar
  56   29   30 ar
  57   29   56 1
  58   30   31 ar
  59   30   33 1
  60   31   32 ar
  61   31   57 1
  62   33   34 1
  63   34   58 1
  64   34   59 1
  65   34   60 1

#	End of record

