#	Name: ASD02039439
#	Creating user name:	WinNT
#	Creation time:	15. 06. 2019 20:18

#	Modifying user name:	WinNT
#	Modification time:	15. 06. 2019 20:18

#	Program:	/corina/corina34_cracker 3.40 0067  02.08.2006

@<TRIPOS>MOLECULE
ASD02039439
  53   56    0    0    0
SMALL
NO_CHARGES


@<TRIPOS>ATOM
   1 C1            -0.0282     1.1184    -0.2160 C.2     
   2 C2             0.1438    -0.2063    -0.2616 C.2     
   3 C3             1.1274     2.0699    -0.0423 C.3     
   4 N4             1.5764     2.5380    -1.3560 N.am    
   5 C5             0.9848     3.7411    -1.9464 C.3     
   6 C6             2.5336     1.8616    -2.0213 C.2     
   7 C7             3.2114     0.7218    -1.3796 C.2     
   8 C8             4.2639     0.0187    -1.8887 C.2     
   9 N9             2.9063     0.1835    -0.1713 N.2     
  10 C10            3.7175    -0.8067     0.0653 C.2     
  11 N11            4.5738    -0.9368    -0.9812 N.pl3   
  12 O12            2.8379     2.1923    -3.1515 O.2     
  13 C13            5.6408    -1.9330    -1.1058 C.3     
  14 S14           -1.4351    -0.9605    -0.4723 S.3     
  15 C15           -2.1895     0.6315    -0.4779 C.2     
  16 N16           -1.2665     1.5398    -0.3376 N.2     
  17 C17           -3.6366     0.8946    -0.6246 C.ar    
  18 C18           -4.5294    -0.1681    -0.7742 C.ar    
  19 C19           -5.8782     0.0813    -0.9102 C.ar    
  20 C20           -6.3493     1.3876    -0.8990 C.ar    
  21 C21           -5.4643     2.4475    -0.7504 C.ar    
  22 C22           -4.1147     2.2060    -0.6081 C.ar    
  23 O23           -7.6793     1.6294    -1.0342 O.3     
  24 C24           -8.0955     2.9963    -1.0141 C.3     
  25 F25           -7.4793     3.6870    -2.0631 F       
  26 F26           -9.4848     3.0630    -1.1643 F       
  27 F27           -7.7299     3.5772     0.2050 F       
  28 C28            2.0876     4.7622    -2.2422 C.3     
  29 C29            1.4710     5.9828    -2.9304 C.3     
  30 O30            0.8038     5.5684    -4.1242 O.3     
  31 C31           -0.2684     4.6495    -3.9045 C.3     
  32 C32            0.2784     3.3754    -3.2554 C.3     
  33 H33            1.0878    -0.7251    -0.1831 H       
  34 H34            0.8092     2.9224     0.5578 H       
  35 H35            1.9476     1.5575     0.4606 H       
  36 H36            0.2653     4.1728    -1.2506 H       
  37 H37            4.7554     0.1912    -2.8348 H       
  38 H38            3.7126    -1.4234     0.9520 H       
  39 H39            5.2490    -2.8259    -1.5930 H       
  40 H40            6.4546    -1.5210    -1.7024 H       
  41 H41            6.0124    -2.1932    -0.1147 H       
  42 H42           -4.1638    -1.1843    -0.7837 H       
  43 H43           -6.5696    -0.7403    -1.0260 H       
  44 H44           -5.8345     3.4621    -0.7422 H       
  45 H45           -3.4271     3.0308    -0.4926 H       
  46 H46            2.5591     5.0698    -1.3088 H       
  47 H47            2.8338     4.3128    -2.8975 H       
  48 H48            0.7543     6.4553    -2.2587 H       
  49 H49            2.2575     6.6943    -3.1818 H       
  50 H50           -1.0079     5.1046    -3.2455 H       
  51 H51           -0.7349     4.4006    -4.8576 H       
  52 H52            0.9880     2.8980    -3.9312 H       
  53 H53           -0.5440     2.6911    -3.0467 H       
@<TRIPOS>BOND
   1    1    2 2
   2    1    3 1
   3    1   16 1
   4    2   14 1
   5    2   33 1
   6    3    4 1
   7    3   34 1
   8    3   35 1
   9    4    5 1
  10    4    6 am
  11    5   28 1
  12    5   32 1
  13    5   36 1
  14    6    7 1
  15    6   12 2
  16    7    8 2
  17    7    9 1
  18    8   11 1
  19    8   37 1
  20    9   10 2
  21   10   11 1
  22   10   38 1
  23   11   13 1
  24   13   39 1
  25   13   40 1
  26   13   41 1
  27   14   15 1
  28   15   16 2
  29   15   17 1
  30   17   18 ar
  31   17   22 ar
  32   18   19 ar
  33   18   42 1
  34   19   20 ar
  35   19   43 1
  36   20   21 ar
  37   20   23 1
  38   21   22 ar
  39   21   44 1
  40   22   45 1
  41   23   24 1
  42   24   25 1
  43   24   26 1
  44   24   27 1
  45   28   29 1
  46   28   46 1
  47   28   47 1
  48   29   30 1
  49   29   48 1
  50   29   49 1
  51   30   31 1
  52   31   32 1
  53   31   50 1
  54   31   51 1
  55   32   52 1
  56   32   53 1

#	End of record

