#	Name: ASD01840046
#	Creating user name:	WinNT
#	Creation time:	15. 06. 2019 19:37

#	Modifying user name:	WinNT
#	Modification time:	15. 06. 2019 19:37

#	Program:	/corina/corina34_cracker 3.40 0067  02.08.2006

@<TRIPOS>MOLECULE
ASD01840046
  54   58    0    0    0
SMALL
NO_CHARGES


@<TRIPOS>ATOM
   1 N1            -0.8169     1.4453     0.6249 N.3     
   2 C2            -0.9655    -0.0142     0.7199 C.3     
   3 C3            -0.0574    -0.6828    -0.3156 C.3     
   4 O4             1.2923    -0.2610    -0.1018 O.3     
   5 C5             1.4734     1.1550    -0.1878 C.3     
   6 C6             0.5808     1.8422     0.8491 C.3     
   7 C7            -1.7154     2.1283     1.5652 C.3     
   8 C8            -1.3613     3.6158     1.6198 C.3     
   9 O9            -1.6196     4.2138     0.3479 O.3     
  10 C10           -1.3572     5.5382     0.2259 C.ar    
  11 C11           -1.3306     7.5074    -1.1107 C.ar    
  12 C12           -1.5961     6.1765    -0.9931 C.ar    
  13 N13           -0.8862     6.2032     1.2603 N.ar    
  14 C14           -0.6095     7.5090     1.1983 C.ar    
  15 C15           -0.8193     8.2110     0.0061 C.ar    
  16 C16           -2.1305     5.6387    -2.3028 C.3     
  17 C17           -2.5647     6.8864    -3.1027 C.3     
  18 C18           -1.6605     7.9869    -2.5051 C.3     
  19 S19            0.0184     8.5897     2.4366 S.3     
  20 C20           -0.0036     9.9683     1.3550 C.2     
  21 C21           -0.4639     9.6137     0.1222 C.2     
  22 C22            0.4024    11.2719     1.7125 C.2     
  23 C23            1.0215    11.5182     3.0362 C.ar    
  24 O24            0.2439    12.1946     0.9329 O.2     
  25 N25            2.1660    11.9736     5.4809 N.ar    
  26 C26            2.3107    10.7899     4.9184 C.ar    
  27 C27            1.7502    10.5171     3.6862 C.ar    
  28 C28            0.8981    12.7600     3.6673 C.ar    
  29 C29            1.4915    12.9463     4.9003 C.ar    
  30 N30           -0.5879    10.5122    -0.9238 N.pl3   
  31 H31           -0.6826    -0.3446     1.7194 H       
  32 H32           -2.0025    -0.2879     0.5254 H       
  33 H33           -0.1213    -1.7658    -0.2105 H       
  34 H34           -0.3744    -0.3944    -1.3178 H       
  35 H35            2.5167     1.4012     0.0098 H       
  36 H36            1.2009     1.4968    -1.1863 H       
  37 H37            0.6726     2.9237     0.7488 H       
  38 H38            0.8884     1.5415     1.8506 H       
  39 H39           -2.7466     2.0122     1.2317 H       
  40 H40           -1.6031     1.6914     2.5575 H       
  41 H41           -1.9676     4.1058     2.3816 H       
  42 H42           -0.3058     3.7292     1.8670 H       
  43 H43           -1.3487     5.0994    -2.8376 H       
  44 H44           -2.9860     4.9875    -2.1236 H       
  45 H45           -2.3648     6.7547    -4.1660 H       
  46 H46           -3.6169     7.1119    -2.9293 H       
  47 H47           -2.1958     8.9355    -2.4627 H       
  48 H48           -0.7500     8.0909    -3.0952 H       
  49 H49            2.8720    10.0220     5.4300 H       
  50 H50            1.8726     9.5452     3.2314 H       
  51 H51            0.3474    13.5614     3.1973 H       
  52 H52            1.3979    13.9003     5.3977 H       
  53 H53           -0.9254    10.2132    -1.7826 H       
  54 H54           -0.3372    11.4408    -0.7978 H       
@<TRIPOS>BOND
   1    1    2 1
   2    1    6 1
   3    1    7 1
   4    2    3 1
   5    2   31 1
   6    2   32 1
   7    3    4 1
   8    3   33 1
   9    3   34 1
  10    4    5 1
  11    5    6 1
  12    5   35 1
  13    5   36 1
  14    6   37 1
  15    6   38 1
  16    7    8 1
  17    7   39 1
  18    7   40 1
  19    8    9 1
  20    8   41 1
  21    8   42 1
  22    9   10 1
  23   10   13 ar
  24   10   12 ar
  25   11   15 ar
  26   11   18 1
  27   11   12 ar
  28   12   16 1
  29   13   14 ar
  30   14   19 1
  31   14   15 ar
  32   15   21 1
  33   16   17 1
  34   16   43 1
  35   16   44 1
  36   17   18 1
  37   17   45 1
  38   17   46 1
  39   18   47 1
  40   18   48 1
  41   19   20 1
  42   20   21 2
  43   20   22 1
  44   21   30 1
  45   22   23 1
  46   22   24 2
  47   23   28 ar
  48   23   27 ar
  49   25   26 ar
  50   25   29 ar
  51   26   27 ar
  52   26   49 1
  53   27   50 1
  54   28   29 ar
  55   28   51 1
  56   29   52 1
  57   30   53 1
  58   30   54 1

#	End of record

