#	Name: ASD04750007
#	Creating user name:	WinNT
#	Creation time:	15. 06. 2019 20:52

#	Modifying user name:	WinNT
#	Modification time:	15. 06. 2019 20:52

#	Program:	/corina/corina34_cracker 3.40 0067  02.08.2006

@<TRIPOS>MOLECULE
ASD04750007
  41   44    0    0    0
SMALL
NO_CHARGES


@<TRIPOS>ATOM
   1 C1             0.1856     0.9914    -1.5839 C.ar    
   2 C2             0.2822    -0.3846    -1.4759 C.ar    
   3 C3             1.4769    -0.9691    -1.1139 C.ar    
   4 C4             2.5963    -0.1705    -0.8538 C.ar    
   5 C5             2.4896     1.2150    -0.9651 C.ar    
   6 C6             1.2877     1.7880    -1.3289 C.ar    
   7 C7             3.9722    -0.5374    -0.4553 C.2     
   8 C8             4.7591     0.6875    -0.3123 C.2     
   9 C9             3.8269     1.8315    -0.6353 C.3     
  10 C10            6.0602     0.7778     0.0394 C.2     
  11 C11            6.7516     2.0745    -0.0259 C.ar    
  12 C12            6.0917     3.2439     0.3671 C.ar    
  13 C13            8.0744     2.1443    -0.4760 C.ar    
  14 C14            8.7155     3.3635    -0.5339 C.ar    
  15 C15            8.0540     4.5165    -0.1477 C.ar    
  16 C16            6.7468     4.4553     0.3033 C.ar    
  17 O17            4.3816    -1.6696    -0.2761 O.2     
  18 N18            4.3323     2.5811    -1.7881 N.pl3   
  19 C19            3.9403     3.9071    -1.9853 C.ar    
  20 C20            4.3130     4.5783    -3.1430 C.ar    
  21 C21            3.9232     5.8892    -3.3350 C.ar    
  22 C22            3.1629     6.5337    -2.3765 C.ar    
  23 C23            2.7902     5.8684    -1.2229 C.ar    
  24 C24            3.1721     4.5557    -1.0269 C.ar    
  25 H25           -0.7514     1.4445    -1.8722 H       
  26 H26           -0.5808    -1.0023    -1.6756 H       
  27 H27            1.5490    -2.0435    -1.0305 H       
  28 H28            1.2074     2.8616    -1.4148 H       
  29 H29            3.7318     2.4911     0.2273 H       
  30 H30            6.5928    -0.1022     0.3686 H       
  31 H31            5.0717     3.1978     0.7192 H       
  32 H32            8.5920     1.2455    -0.7770 H       
  33 H33            9.7366     3.4191    -0.8811 H       
  34 H34            8.5620     5.4684    -0.1947 H       
  35 H35            6.2375     5.3594     0.6028 H       
  36 H36            4.9393     2.1565    -2.4144 H       
  37 H37            4.9071     4.0757    -3.8919 H       
  38 H38            4.2129     6.4118    -4.2347 H       
  39 H39            2.8597     7.5590    -2.5290 H       
  40 H40            2.1963     6.3746    -0.4762 H       
  41 H41            2.8803     4.0366    -0.1259 H       
@<TRIPOS>BOND
   1    1    2 ar
   2    1    6 ar
   3    1   25 1
   4    2    3 ar
   5    2   26 1
   6    3    4 ar
   7    3   27 1
   8    4    5 ar
   9    4    7 1
  10    5    6 ar
  11    5    9 1
  12    6   28 1
  13    7    8 1
  14    7   17 2
  15    8    9 1
  16    8   10 2
  17    9   18 1
  18    9   29 1
  19   10   11 1
  20   10   30 1
  21   11   12 ar
  22   11   13 ar
  23   12   16 ar
  24   12   31 1
  25   13   14 ar
  26   13   32 1
  27   14   15 ar
  28   14   33 1
  29   15   16 ar
  30   15   34 1
  31   16   35 1
  32   18   19 1
  33   18   36 1
  34   19   20 ar
  35   19   24 ar
  36   20   21 ar
  37   20   37 1
  38   21   22 ar
  39   21   38 1
  40   22   23 ar
  41   22   39 1
  42   23   24 ar
  43   23   40 1
  44   24   41 1

#	End of record

