#	Name: ASD01028062
#	Creating user name:	WinNT
#	Creation time:	15. 06. 2019 18:56

#	Modifying user name:	WinNT
#	Modification time:	15. 06. 2019 18:56

#	Program:	/corina/corina34_cracker 3.40 0067  02.08.2006

@<TRIPOS>MOLECULE
ASD01028062
  75   80    0    0    0
SMALL
NO_CHARGES


@<TRIPOS>ATOM
   1 C1            -0.0187     1.5267     0.0104 C.3     
   2 C2             0.0021    -0.0041     0.0020 C.3     
   3 C3            -1.4105    -0.5329     0.2633 C.3     
   4 C4             2.0555     1.8320     1.3657 C.3     
   5 C5             1.4121     2.0713    -0.0003 C.3     
   6 N6             2.4340     3.1381     1.9715 N.3     
   7 N7             0.1689     1.8415     4.3710 N.pl3   
   8 C8             0.8853     2.8932     4.9611 C.ar    
   9 C9             1.4129     3.8554     4.1054 C.ar    
  10 C10            1.2367     3.7208     2.6187 C.3     
  11 C11            1.1181     2.9839     6.3304 C.ar    
  12 C12            1.7914     4.0854     6.8398 C.ar    
  13 C13            2.2587     5.0767     5.9906 C.ar    
  14 C14            2.0747     4.9546     4.6279 C.ar    
  15 O15           -1.3575    -1.6328     1.1728 O.3     
  16 C16           -1.6473    -1.3841     2.4745 C.ar    
  17 C17           -1.0324    -0.3221     3.0867 C.ar    
  18 C18           -1.3226    -0.0426     4.4285 C.ar    
  19 C19           -0.7168     1.0541     5.1017 C.ar    
  20 N20           -1.0398     1.2715     6.3552 N.ar    
  21 O21            0.8209     2.1365     7.3479 O.3     
  22 C22            1.1429     2.8030     8.5725 C.3     
  23 O23            1.8735     3.9743     8.1922 O.3     
  24 C24           -2.5453    -2.1888     3.1814 C.ar    
  25 C25           -2.8447    -1.9375     4.5017 C.ar    
  26 C26           -2.2366    -0.8522     5.1439 C.ar    
  27 N27           -2.4860    -0.5380     6.4236 N.ar    
  28 C28           -1.9008     0.4899     6.9882 C.ar    
  29 O29           -3.1347    -3.2401     2.5532 O.3     
  30 C30           -4.0440    -4.0291     3.3230 C.3     
  31 C31           -4.6029    -5.1571     2.4535 C.3     
  32 C32           -5.5765    -6.0018     3.2777 C.3     
  33 N33           -6.1131    -7.0849     2.4429 N.3     
  34 C34            3.4514     2.8377     3.0155 C.3     
  35 C35           -6.8657    -8.0565     3.2574 C.3     
  36 C36           -8.2891    -8.1423     2.6674 C.3     
  37 C37           -8.0945    -7.6437     1.2112 C.3     
  38 C38           -7.0113    -6.5519     1.3964 C.3     
  39 Br39           3.1433     6.5906     6.6983 Br      
  40 H40           -0.5463     1.8841    -0.8750 H       
  41 H41           -0.5332     1.8785     0.9036 H       
  42 H42            0.3476    -0.3586    -0.9693 H       
  43 H43            0.6746    -0.3645     0.7789 H       
  44 H44           -2.0215     0.2619     0.6908 H       
  45 H45           -1.8523    -0.8620    -0.6779 H       
  46 H46            1.3630     1.3232     2.0256 H       
  47 H47            2.9617     1.2394     1.2464 H       
  48 H48            1.9895     1.5551    -0.7693 H       
  49 H49            1.3947     3.1388    -0.2188 H       
  50 H50            0.2960     1.6552     3.4228 H       
  51 H51            1.0716     4.7131     2.1874 H       
  52 H52            0.3742     3.0984     2.3952 H       
  53 H53            2.4460     5.7214     3.9633 H       
  54 H54           -0.3336     0.2852     2.5327 H       
  55 H55            0.2306     3.0823     9.0991 H       
  56 H56            1.7596     2.1602     9.1996 H       
  57 H57           -3.5398    -2.5687     5.0362 H       
  58 H58           -2.1321     0.7089     8.0201 H       
  59 H59           -3.5206    -4.4553     4.1789 H       
  60 H60           -4.8629    -3.4010     3.6738 H       
  61 H61           -5.1263    -4.7309     1.5976 H       
  62 H62           -3.7840    -5.7852     2.1027 H       
  63 H63           -5.0531    -6.4280     4.1336 H       
  64 H64           -6.3954    -5.3738     3.6285 H       
  65 H65            4.3140     2.3566     2.5545 H       
  66 H66            3.7655     3.7652     3.4943 H       
  67 H67            3.0198     2.1714     3.7624 H       
  68 H68           -6.3845    -9.0333     3.2082 H       
  69 H69           -6.9130    -7.7156     4.2916 H       
  70 H70           -8.6492    -9.1711     2.6776 H       
  71 H71           -8.9715    -7.4886     3.2106 H       
  72 H72           -7.7336    -8.4467     0.5685 H       
  73 H73           -9.0168    -7.2160     0.8184 H       
  74 H74           -7.4663    -5.6181     1.7265 H       
  75 H75           -6.4628    -6.4000     0.4669 H       
@<TRIPOS>BOND
   1    1    2 1
   2    1    5 1
   3    1   40 1
   4    1   41 1
   5    2    3 1
   6    2   42 1
   7    2   43 1
   8    3   15 1
   9    3   44 1
  10    3   45 1
  11    4    5 1
  12    4    6 1
  13    4   46 1
  14    4   47 1
  15    5   48 1
  16    5   49 1
  17    6   34 1
  18    6   10 1
  19    7    8 1
  20    7   19 1
  21    7   50 1
  22    8    9 ar
  23    8   11 ar
  24    9   10 1
  25    9   14 ar
  26   10   51 1
  27   10   52 1
  28   11   12 ar
  29   11   21 1
  30   12   13 ar
  31   12   23 1
  32   13   14 ar
  33   13   39 1
  34   14   53 1
  35   15   16 1
  36   16   17 ar
  37   16   24 ar
  38   17   18 ar
  39   17   54 1
  40   18   19 ar
  41   18   26 ar
  42   19   20 ar
  43   20   28 ar
  44   21   22 1
  45   22   23 1
  46   22   55 1
  47   22   56 1
  48   24   25 ar
  49   24   29 1
  50   25   26 ar
  51   25   57 1
  52   26   27 ar
  53   27   28 ar
  54   28   58 1
  55   29   30 1
  56   30   31 1
  57   30   59 1
  58   30   60 1
  59   31   32 1
  60   31   61 1
  61   31   62 1
  62   32   33 1
  63   32   63 1
  64   32   64 1
  65   33   35 1
  66   33   38 1
  67   34   65 1
  68   34   66 1
  69   34   67 1
  70   35   36 1
  71   35   68 1
  72   35   69 1
  73   36   37 1
  74   36   70 1
  75   36   71 1
  76   37   38 1
  77   37   72 1
  78   37   73 1
  79   38   74 1
  80   38   75 1

#	End of record

