#	Name: ASD06620014
#	Creating user name:	WinNT
#	Creation time:	15. 06. 2019 21:07

#	Modifying user name:	WinNT
#	Modification time:	15. 06. 2019 21:07

#	Program:	/corina/corina34_cracker 3.40 0067  02.08.2006

@<TRIPOS>MOLECULE
ASD06620014
  69   73    0    0    0
SMALL
NO_CHARGES


@<TRIPOS>ATOM
   1 C1            -0.0167     1.3797     0.0096 C.ar    
   2 C2             0.0021    -0.0041     0.0020 C.ar    
   3 C3             1.2349    -0.6673    -0.0134 C.ar    
   4 C4             2.3975     0.0930    -0.0204 C.ar    
   5 C5             2.2923     1.4695    -0.0120 C.ar    
   6 N6             1.1127     2.0628     0.0025 N.ar    
   7 C7            -0.3747    -2.1918    -0.0061 C.2     
   8 N8            -0.9810    -0.9888     0.0062 N.am    
   9 N9             0.9622    -2.0260    -0.0180 N.am    
  10 O10           -0.9476    -3.2652    -0.0058 O.2     
  11 C11            1.9586    -3.0999    -0.0341 C.3     
  12 C12            1.9537    -4.0857     1.1359 C.3     
  13 C13            1.4535    -4.5293    -0.2403 C.3     
  14 C14           -2.4275    -0.7571     0.0217 C.3     
  15 C15           -3.7433    -1.2471    -3.3224 C.2     
  16 C16           -4.2671    -1.8903    -4.4607 C.2     
  17 N17           -3.5372     0.1103    -3.3684 N.pl3   
  18 N18           -4.5461    -1.1895    -5.5339 N.2     
  19 C19           -4.3438     0.1291    -5.5751 C.2     
  20 C20           -3.8439     0.7937    -4.5103 C.2     
  21 N21           -3.3716    -1.6873    -2.1288 N.2     
  22 C22           -2.9375    -0.6697    -1.3937 C.2     
  23 C23           -3.0292     0.4822    -2.1516 C.2     
  24 C24           -2.6529     1.8409    -1.7345 C.2     
  25 C25           -1.8654     2.5809    -2.5106 C.2     
  26 C26           -1.4797     3.9736    -2.0830 C.3     
  27 C27            0.0449     4.1020    -2.0791 C.3     
  28 O28            0.4106     5.4225    -1.6737 O.3     
  29 Si29           2.0203     5.6814    -1.6309 Si      
  30 C30            2.8077     4.4986    -0.4259 C.3     
  31 C31            2.7386     5.4087    -3.3281 C.3     
  32 C32            2.3535     7.4327    -1.0897 C.3     
  33 C33            1.7637     7.6567     0.3042 C.3     
  34 C34            3.8636     7.6755    -1.0495 C.3     
  35 C35            1.7069     8.4040    -2.0792 C.3     
  36 H36           -0.9610     1.9037     0.0169 H       
  37 H37            3.3663    -0.3842    -0.0319 H       
  38 H38            3.1894     2.0709    -0.0170 H       
  39 H39            2.9237    -2.8392    -0.4685 H       
  40 H40            2.9155    -4.4740     1.4710 H       
  41 H41            1.2091    -3.9353     1.9176 H       
  42 H42            0.3798    -4.6707    -0.3640 H       
  43 H43            2.0862    -5.2093    -0.8106 H       
  44 H44           -2.9220    -1.5813     0.5358 H       
  45 H45           -2.6404     0.1762     0.5429 H       
  46 H46           -4.4380    -2.9567    -4.4502 H       
  47 H47           -4.5848     0.6747    -6.4755 H       
  48 H48           -3.6879     1.8611    -4.5618 H       
  49 H49           -3.0158     2.2383    -0.7981 H       
  50 H50           -1.5026     2.1835    -3.4470 H       
  51 H51           -1.9036     4.6977    -2.7788 H       
  52 H52           -1.8631     4.1652    -1.0809 H       
  53 H53            0.4687     3.3778    -1.3833 H       
  54 H54            0.4282     3.9103    -3.0813 H       
  55 H55            2.6128     3.4740    -0.7426 H       
  56 H56            3.8835     4.6716    -0.3973 H       
  57 H57            2.3875     4.6582     0.5671 H       
  58 H58            2.2779     6.1007    -4.0331 H       
  59 H59            3.8144     5.5817    -3.2995 H       
  60 H60            2.5436     4.3841    -3.6447 H       
  61 H61            2.2243     6.9646     1.0092 H       
  62 H62            1.9586     8.6813     0.6208 H       
  63 H63            0.6879     7.4837     0.2756 H       
  64 H64            4.2838     7.5159    -2.0425 H       
  65 H65            4.0585     8.7001    -0.7328 H       
  66 H66            4.3242     6.9835    -0.3445 H       
  67 H67            0.6311     8.2310    -2.1078 H       
  68 H68            1.9018     9.4287    -1.7626 H       
  69 H69            2.1271     8.2445    -3.0722 H       
@<TRIPOS>BOND
   1    1    2 ar
   2    1    6 ar
   3    1   36 1
   4    2    3 ar
   5    2    8 1
   6    3    4 ar
   7    3    9 1
   8    4    5 ar
   9    4   37 1
  10    5    6 ar
  11    5   38 1
  12    7    8 am
  13    7    9 am
  14    7   10 2
  15    8   14 1
  16    9   11 1
  17   11   12 1
  18   11   13 1
  19   11   39 1
  20   12   13 1
  21   12   40 1
  22   12   41 1
  23   13   42 1
  24   13   43 1
  25   14   22 1
  26   14   44 1
  27   14   45 1
  28   15   16 1
  29   15   17 1
  30   15   21 2
  31   16   18 2
  32   16   46 1
  33   17   20 1
  34   17   23 1
  35   18   19 1
  36   19   20 2
  37   19   47 1
  38   20   48 1
  39   21   22 1
  40   22   23 2
  41   23   24 1
  42   24   25 2
  43   24   49 1
  44   25   26 1
  45   25   50 1
  46   26   27 1
  47   26   51 1
  48   26   52 1
  49   27   28 1
  50   27   53 1
  51   27   54 1
  52   28   29 1
  53   29   30 1
  54   29   31 1
  55   29   32 1
  56   30   55 1
  57   30   56 1
  58   30   57 1
  59   31   58 1
  60   31   59 1
  61   31   60 1
  62   32   33 1
  63   32   35 1
  64   32   34 1
  65   33   61 1
  66   33   62 1
  67   33   63 1
  68   34   64 1
  69   34   65 1
  70   34   66 1
  71   35   67 1
  72   35   68 1
  73   35   69 1

#	End of record

