#	Name: ASD07300891
#	Creating user name:	WinNT
#	Creation time:	15. 06. 2019 21:10

#	Modifying user name:	WinNT
#	Modification time:	15. 06. 2019 21:10

#	Program:	/corina/corina34_cracker 3.40 0067  02.08.2006

@<TRIPOS>MOLECULE
ASD07300891
  49   53    0    0    0
SMALL
NO_CHARGES


@<TRIPOS>ATOM
   1 N1             0.1541     1.0873    -0.3549 N.am    
   2 C2             0.0486    -0.2652    -0.3257 C.2     
   3 N3             1.0773    -1.0587    -0.3897 N.2     
   4 C4             2.3304    -0.5880    -0.4908 C.2     
   5 C5             2.5392     0.7996    -0.5287 C.2     
   6 C6             1.3695     1.6749    -0.4551 C.2     
   7 N7             3.5563    -1.1671    -0.5729 N.pl3   
   8 N8             4.5174    -0.1522    -0.6610 N.2     
   9 C9             3.9266     1.0106    -0.6357 C.2     
  10 O10            1.4847     2.8875    -0.4836 O.2     
  11 C11            3.8268    -2.6069    -0.5695 C.3     
  12 C12            4.3881    -3.0237    -1.9305 C.3     
  13 C13            4.6706    -4.5273    -1.9269 C.3     
  14 C14            5.6905    -4.8520    -0.8335 C.3     
  15 C15            5.1292    -4.4353     0.5274 C.3     
  16 C16            4.8467    -2.9316     0.5238 C.3     
  17 C17           -1.3243    -0.8764    -0.2134 C.3     
  18 C18           -1.4063    -2.3115    -0.7599 C.3     
  19 C19           -2.3138    -2.6325     0.4393 C.3     
  20 C20           -1.6223    -1.4713     1.1730 C.3     
  21 F21            5.9489    -6.2269    -0.8302 F       
  22 F22            6.8779    -4.1550    -1.0816 F       
  23 C23           -0.3870    -1.8860     1.9301 C.2     
  24 N24            0.5483    -2.6742     1.4824 N.2     
  25 C25            1.4875    -2.8134     2.4348 C.2     
  26 C26            1.1045    -2.0827     3.4949 C.2     
  27 O27           -0.0670    -1.4999     3.1725 O.3     
  28 C28            1.8477    -1.9377     4.7979 C.3     
  29 H29           -0.6449     1.6352    -0.3079 H       
  30 H30            4.4180     1.9708    -0.6878 H       
  31 H31            2.9017    -3.1500    -0.3763 H       
  32 H32            3.6615    -2.7924    -2.7094 H       
  33 H33            5.3132    -2.4806    -2.1237 H       
  34 H34            3.7455    -5.0704    -1.7336 H       
  35 H35            5.0705    -4.8242    -2.8964 H       
  36 H36            4.2041    -4.9783     0.7207 H       
  37 H37            5.8558    -4.6666     1.3063 H       
  38 H38            5.7718    -2.3885     0.3306 H       
  39 H39            4.4468    -2.6347     1.4934 H       
  40 H40           -2.1112    -0.2212    -0.5871 H       
  41 H41           -1.9127    -2.3839    -1.7224 H       
  42 H42           -0.4538    -2.8411    -0.7408 H       
  43 H43           -3.3721    -2.4577     0.2452 H       
  44 H44           -2.1197    -3.6080     0.8851 H       
  45 H45           -2.3030    -0.8654     1.7710 H       
  46 H46            2.3871    -3.4063     2.3609 H       
  47 H47            2.4673    -1.0416     4.7650 H       
  48 H48            1.1329    -1.8554     5.6166 H       
  49 H49            2.4804    -2.8114     4.9544 H       
@<TRIPOS>BOND
   1    1    2 1
   2    1    6 am
   3    1   29 1
   4    2    3 2
   5    2   17 1
   6    3    4 1
   7    4    5 2
   8    4    7 1
   9    5    6 1
  10    5    9 1
  11    6   10 2
  12    7    8 1
  13    7   11 1
  14    8    9 2
  15    9   30 1
  16   11   12 1
  17   11   16 1
  18   11   31 1
  19   12   13 1
  20   12   32 1
  21   12   33 1
  22   13   14 1
  23   13   34 1
  24   13   35 1
  25   14   15 1
  26   14   21 1
  27   14   22 1
  28   15   16 1
  29   15   36 1
  30   15   37 1
  31   16   38 1
  32   16   39 1
  33   17   18 1
  34   17   20 1
  35   17   40 1
  36   18   19 1
  37   18   41 1
  38   18   42 1
  39   19   20 1
  40   19   43 1
  41   19   44 1
  42   20   23 1
  43   20   45 1
  44   23   24 2
  45   23   27 1
  46   24   25 1
  47   25   26 2
  48   25   46 1
  49   26   27 1
  50   26   28 1
  51   28   47 1
  52   28   48 1
  53   28   49 1

#	End of record

