#	Name: ASD05380327
#	Creating user name:	WinNT
#	Creation time:	15. 06. 2019 20:59

#	Modifying user name:	WinNT
#	Modification time:	15. 06. 2019 20:59

#	Program:	/corina/corina34_cracker 3.40 0067  02.08.2006

@<TRIPOS>MOLECULE
ASD05380327
  59   63    0    0    0
SMALL
NO_CHARGES


@<TRIPOS>ATOM
   1 N1            -0.6429     2.0077    -0.4626 N.ar    
   2 C2            -0.3543     0.7073    -0.5191 C.ar    
   3 C3             0.9340     0.3148    -0.8786 C.ar    
   4 C4             1.8716     1.3038    -1.1653 C.ar    
   5 N5             1.5100     2.5806    -1.0874 N.ar    
   6 C6             0.2761     2.9180    -0.7424 C.ar    
   7 N7             3.1694     0.9601    -1.5279 N.am    
   8 C8             3.6196     0.6359    -2.8903 C.3     
   9 C9             4.2152     0.8760    -0.6942 C.2     
  10 O10            5.3583     0.5253    -1.2938 O.3     
  11 C11            5.1213     0.3362    -2.7189 C.3     
  12 C12            5.4268    -1.0835    -3.1215 C.ar    
  13 O13            4.1326     1.0985     0.4973 O.2     
  14 N14           -0.0609     4.2586    -0.6728 N.3     
  15 C15           -1.4852     4.4278    -0.3506 C.3     
  16 C16            0.2760     4.9522    -1.9245 C.3     
  17 C17           -0.0571     6.4398    -1.7830 C.3     
  18 O18           -1.4378     6.5834    -1.4391 O.3     
  19 C19           -1.8007     5.9206    -0.2248 C.3     
  20 C20           -1.3886    -0.3066    -0.2039 C.ar    
  21 C21           -2.1465    -0.2170     0.9672 C.ar    
  22 N22           -3.0591    -1.1399     1.2126 N.ar    
  23 C23           -3.2600    -2.1400     0.3660 C.ar    
  24 N24           -2.5615    -2.2592    -0.7547 N.ar    
  25 C25           -1.6349    -1.3737    -1.0732 C.ar    
  26 C26           -1.9253     0.9159     1.9361 C.3     
  27 F27           -2.4578     2.0951     1.4042 F       
  28 F28           -2.5593     0.6232     3.1484 F       
  29 F29           -0.5534     1.0809     2.1552 F       
  30 N30           -4.2244    -3.0853     0.6600 N.pl3   
  31 C31            3.4130     1.8309    -3.8232 C.3     
  32 C32            6.0396    -1.3416    -4.3334 C.ar    
  33 C33            6.3198    -2.6439    -4.7027 C.ar    
  34 C34            5.9876    -3.6881    -3.8599 C.ar    
  35 C35            5.3756    -3.4299    -2.6476 C.ar    
  36 C36            5.0993    -2.1273    -2.2764 C.ar    
  37 O37            2.0170     2.1174    -3.9283 O.3     
  38 H38            1.1988    -0.7309    -0.9330 H       
  39 H39            3.0929    -0.2399    -3.2693 H       
  40 H40            5.7191     1.0368    -3.3019 H       
  41 H41           -2.0922     3.9932    -1.1449 H       
  42 H42           -1.7069     3.9282     0.5925 H       
  43 H43            1.3400     4.8355    -2.1304 H       
  44 H44           -0.3028     4.5260    -2.7440 H       
  45 H45            0.5607     6.8781    -0.9992 H       
  46 H46            0.1375     6.9479    -2.7275 H       
  47 H47           -2.8671     6.0532    -0.0425 H       
  48 H48           -1.2336     6.3439     0.6043 H       
  49 H49           -1.0699    -1.4768    -1.9878 H       
  50 H50           -4.7430    -3.0114     1.4763 H       
  51 H51           -4.3825    -3.8228     0.0500 H       
  52 H52            3.9330     2.7002    -3.4207 H       
  53 H53            3.8107     1.5943    -4.8101 H       
  54 H54            6.2992    -0.5259    -4.9919 H       
  55 H55            6.7980    -2.8457    -5.6498 H       
  56 H56            6.2059    -4.7056    -4.1488 H       
  57 H57            5.1157    -4.2457    -1.9893 H       
  58 H58            4.6212    -1.9255    -1.3293 H       
  59 H59            1.8113     2.8654    -4.5056 H       
@<TRIPOS>BOND
   1    1    2 ar
   2    1    6 ar
   3    2    3 ar
   4    2   20 1
   5    3    4 ar
   6    3   38 1
   7    4    5 ar
   8    4    7 1
   9    5    6 ar
  10    6   14 1
  11    7    8 1
  12    7    9 am
  13    8   31 1
  14    8   11 1
  15    8   39 1
  16    9   10 1
  17    9   13 2
  18   10   11 1
  19   11   12 1
  20   11   40 1
  21   12   32 ar
  22   12   36 ar
  23   14   15 1
  24   14   16 1
  25   15   19 1
  26   15   41 1
  27   15   42 1
  28   16   17 1
  29   16   43 1
  30   16   44 1
  31   17   18 1
  32   17   45 1
  33   17   46 1
  34   18   19 1
  35   19   47 1
  36   19   48 1
  37   20   21 ar
  38   20   25 ar
  39   21   22 ar
  40   21   26 1
  41   22   23 ar
  42   23   24 ar
  43   23   30 1
  44   24   25 ar
  45   25   49 1
  46   26   27 1
  47   26   28 1
  48   26   29 1
  49   30   50 1
  50   30   51 1
  51   31   37 1
  52   31   52 1
  53   31   53 1
  54   32   33 ar
  55   32   54 1
  56   33   34 ar
  57   33   55 1
  58   34   35 ar
  59   34   56 1
  60   35   36 ar
  61   35   57 1
  62   36   58 1
  63   37   59 1

#	End of record

