#	Name: ASD04550077
#	Creating user name:	WinNT
#	Creation time:	15. 06. 2019 20:49

#	Modifying user name:	WinNT
#	Modification time:	15. 06. 2019 20:49

#	Program:	/corina/corina34_cracker 3.40 0067  02.08.2006

@<TRIPOS>MOLECULE
ASD04550077
  38   39    0    0    0
SMALL
NO_CHARGES


@<TRIPOS>ATOM
   1 C1            -0.0269     1.4121    -0.0054 C.ar    
   2 C2            -0.0141     0.0249    -0.0205 C.ar    
   3 C3             1.1949    -0.6552    -0.0388 C.ar    
   4 C4             2.3828     0.0500    -0.0421 C.ar    
   5 C5             2.3674     1.4325    -0.0265 C.ar    
   6 C6             1.1638     2.1126    -0.0087 C.ar    
   7 C7             3.6648     2.1992    -0.0291 C.3     
   8 C8             3.7262     3.0935    -1.2690 C.3     
   9 O9            -1.1841    -0.6666    -0.0168 O.3     
  10 S10           -1.7302    -0.9666    -1.4055 S.o2    
  11 O11           -3.0481    -1.4421    -1.1685 O.2     
  12 O12           -1.5037     0.2303    -2.1372 O.2     
  13 C13            3.7463     3.0526     1.2103 C.2     
  14 O14            2.8402     3.0395     2.0163 O.2     
  15 N15            4.8262     3.8305     1.4230 N.am    
  16 C16            4.8533     4.7043     2.5106 C.ar    
  17 C17            6.0429     4.9648     3.1891 C.ar    
  18 C18            6.0275     5.8354     4.2591 C.ar    
  19 N19            4.9066     6.4176     4.6415 N.ar    
  20 C20            3.7608     6.1968     4.0252 C.ar    
  21 C21            3.6927     5.3439     2.9431 C.ar    
  22 C22           -0.6736    -2.3030    -2.0284 C.3     
  23 F23           -0.7717    -3.4098    -1.1783 F       
  24 F24           -1.0887    -2.6647    -3.3145 F       
  25 F25            0.6544    -1.8654    -2.0728 F       
  26 H26           -0.9668     1.9439     0.0044 H       
  27 H27            1.2074    -1.7351    -0.0503 H       
  28 H28            3.3242    -0.4790    -0.0563 H       
  29 H29            1.1544     3.1925     0.0034 H       
  30 H30            4.5004     1.4995    -0.0440 H       
  31 H31            4.6646     3.6481    -1.2708 H       
  32 H32            3.6672     2.4762    -2.1654 H       
  33 H33            2.8906     3.7932    -1.2541 H       
  34 H34            5.5846     3.7828     0.8201 H       
  35 H35            6.9636     4.4914     2.8816 H       
  36 H36            6.9444     6.0428     4.7909 H       
  37 H37            2.8657     6.6932     4.3699 H       
  38 H38            2.7517     5.1676     2.4433 H       
@<TRIPOS>BOND
   1    1    2 ar
   2    1    6 ar
   3    1   26 1
   4    2    3 ar
   5    2    9 1
   6    3    4 ar
   7    3   27 1
   8    4    5 ar
   9    4   28 1
  10    5    6 ar
  11    5    7 1
  12    6   29 1
  13    7    8 1
  14    7   13 1
  15    7   30 1
  16    8   31 1
  17    8   32 1
  18    8   33 1
  19    9   10 1
  20   10   11 2
  21   10   12 2
  22   10   22 1
  23   13   14 2
  24   13   15 am
  25   15   16 1
  26   15   34 1
  27   16   17 ar
  28   16   21 ar
  29   17   18 ar
  30   17   35 1
  31   18   19 ar
  32   18   36 1
  33   19   20 ar
  34   20   21 ar
  35   20   37 1
  36   21   38 1
  37   22   23 1
  38   22   24 1
  39   22   25 1

#	End of record

