#	Name: ASD07300629
#	Creating user name:	WinNT
#	Creation time:	15. 06. 2019 21:10

#	Modifying user name:	WinNT
#	Modification time:	15. 06. 2019 21:10

#	Program:	/corina/corina34_cracker 3.40 0067  02.08.2006

@<TRIPOS>MOLECULE
ASD07300629
  21   23    0    0    0
SMALL
NO_CHARGES


@<TRIPOS>ATOM
   1 C1            -0.0171     1.4066     0.0098 C.2     
   2 C2             0.0021    -0.0041     0.0020 C.2     
   3 N3             1.1776     2.0840     0.0020 N.pl3   
   4 N4             1.1511    -0.6381    -0.0124 N.2     
   5 C5             2.3106     0.0249    -0.0199 C.2     
   6 C6             2.3462     1.3738    -0.0126 C.2     
   7 N7            -0.9929     2.2994     0.0291 N.2     
   8 C8            -0.4651     3.5239     0.0277 C.2     
   9 C9             0.8848     3.4125     0.0119 C.2     
  10 C10           -1.2406     4.8159     0.0454 C.3     
  11 C11           -1.4828     5.4760     1.4043 C.3     
  12 C12           -0.4823     6.0900     0.4230 C.3     
  13 Cl13          -1.4868    -0.8967     0.0120 Cl      
  14 H14            3.2374    -0.5294    -0.0317 H       
  15 H15            3.2944     1.8908    -0.0190 H       
  16 H16            1.5954     4.2258     0.0096 H       
  17 H17           -2.0281     4.9018    -0.7033 H       
  18 H18           -2.4295     5.9964     1.5495 H       
  19 H19           -1.0812     4.9757     2.2855 H       
  20 H20            0.5776     5.9937     0.6587 H       
  21 H21           -0.7708     7.0144    -0.0774 H       
@<TRIPOS>BOND
   1    1    2 1
   2    1    3 1
   3    1    7 2
   4    2    4 2
   5    2   13 1
   6    3    6 1
   7    3    9 1
   8    4    5 1
   9    5    6 2
  10    5   14 1
  11    6   15 1
  12    7    8 1
  13    8    9 2
  14    8   10 1
  15    9   16 1
  16   10   11 1
  17   10   12 1
  18   10   17 1
  19   11   12 1
  20   11   18 1
  21   11   19 1
  22   12   20 1
  23   12   21 1

#	End of record

