#	Name: ASD03430115
#	Creating user name:	WinNT
#	Creation time:	15. 06. 2019 20:40

#	Modifying user name:	WinNT
#	Modification time:	15. 06. 2019 20:40

#	Program:	/corina/corina34_cracker 3.40 0067  02.08.2006

@<TRIPOS>MOLECULE
ASD03430115
  52   57    0    0    0
SMALL
NO_CHARGES


@<TRIPOS>ATOM
   1 C1             0.0484     1.3745    -0.0592 C.ar    
   2 C2             0.0455    -0.0118    -0.0427 C.ar    
   3 C3             1.2356    -0.7086    -0.0392 C.ar    
   4 C4             2.4520    -0.0325    -0.0421 C.ar    
   5 C5             2.4512     1.3585    -0.0636 C.ar    
   6 C6             1.2576     2.0602    -0.0708 C.ar    
   7 O7             3.5012    -0.9032    -0.0082 O.3     
   8 C8             1.5612    -2.1780    -0.0447 C.3     
   9 C9             3.0497    -2.2079    -0.4189 C.3     
  10 C10            0.4056    -3.8575     1.0332 C.ar    
  11 C11            1.3045    -2.8250     1.2836 C.ar    
  12 C12            0.7244    -2.9439    -1.0287 C.2     
  13 N13            0.0868    -3.9015    -0.3262 N.am    
  14 O14            0.6387    -2.7406    -2.2213 O.2     
  15 C15            1.7628    -2.5879     2.5667 C.ar    
  16 C16            1.3256    -3.3862     3.6177 C.ar    
  17 C17            0.4344    -4.4133     3.3743 C.ar    
  18 C18           -0.0247    -4.6506     2.0945 C.ar    
  19 N19            2.6657    -1.5463     2.8068 N.am    
  20 O20           -1.1355     2.0469    -0.0696 O.3     
  21 C21           -1.0914     3.4331     0.2862 C.3     
  22 C22            0.0753     4.0849    -0.4682 C.3     
  23 O23            1.2845     3.4216    -0.0853 O.3     
  24 C24           -0.8331    -4.8753    -0.9194 C.3     
  25 C25            3.4959    -1.6050     3.8668 C.2     
  26 O26            3.4115    -2.5247     4.6530 O.2     
  27 C27            4.5293    -0.5281     4.0752 C.3     
  28 C28            5.3961    -0.7401     5.3275 C.3     
  29 C29            6.5902    -0.2589     4.4863 C.3     
  30 C30            5.8101    -0.7352     3.2497 C.3     
  31 H31           -0.8921    -0.5478    -0.0322 H       
  32 H32            3.3885     1.8950    -0.0745 H       
  33 H33            3.1761    -2.3407    -1.4933 H       
  34 H34            3.5719    -2.9895     0.1329 H       
  35 H35            1.6818    -3.2042     4.6209 H       
  36 H36            0.0947    -5.0340     4.1902 H       
  37 H37           -0.7217    -5.4558     1.9149 H       
  38 H38            2.6940    -0.7819     2.2103 H       
  39 H39           -2.0272     3.9152     0.0035 H       
  40 H40           -0.9359     3.5323     1.3605 H       
  41 H41           -0.0764     3.9787    -1.5424 H       
  42 H42            0.1369     5.1415    -0.2078 H       
  43 H43           -1.8466    -4.4744    -0.9031 H       
  44 H44           -0.5374    -5.0737    -1.9496 H       
  45 H45           -0.7997    -5.8022    -0.3468 H       
  46 H46            4.1150     0.4770     3.9960 H       
  47 H47            5.1446    -0.0717     6.1510 H       
  48 H48            5.4710    -1.7831     5.6353 H       
  49 H49            6.7405     0.8202     4.5188 H       
  50 H50            7.5066    -0.8206     4.6676 H       
  51 H51            5.9980    -1.7769     2.9894 H       
  52 H52            5.8926    -0.0630     2.3957 H       
@<TRIPOS>BOND
   1    1    2 ar
   2    1    6 ar
   3    1   20 1
   4    2    3 ar
   5    2   31 1
   6    3    4 ar
   7    3    8 1
   8    4    5 ar
   9    4    7 1
  10    5    6 ar
  11    5   32 1
  12    6   23 1
  13    7    9 1
  14    8    9 1
  15    8   11 1
  16    8   12 1
  17    9   33 1
  18    9   34 1
  19   10   11 ar
  20   10   13 1
  21   10   18 ar
  22   11   15 ar
  23   12   13 am
  24   12   14 2
  25   13   24 1
  26   15   16 ar
  27   15   19 1
  28   16   17 ar
  29   16   35 1
  30   17   18 ar
  31   17   36 1
  32   18   37 1
  33   19   25 am
  34   19   38 1
  35   20   21 1
  36   21   22 1
  37   21   39 1
  38   21   40 1
  39   22   23 1
  40   22   41 1
  41   22   42 1
  42   24   43 1
  43   24   44 1
  44   24   45 1
  45   25   26 2
  46   25   27 1
  47   27   28 1
  48   27   30 1
  49   27   46 1
  50   28   29 1
  51   28   47 1
  52   28   48 1
  53   29   30 1
  54   29   49 1
  55   29   50 1
  56   30   51 1
  57   30   52 1

#	End of record

