#	Name: ASD09116401
#	Creating user name:	WinNT
#	Creation time:	15. 06. 2019 21:21

#	Modifying user name:	WinNT
#	Modification time:	15. 06. 2019 21:21

#	Program:	/corina/corina34_cracker 3.40 0067  02.08.2006

@<TRIPOS>MOLECULE
ASD09116401
  72   78    0    0    0
SMALL
NO_CHARGES


@<TRIPOS>ATOM
   1 N1            -0.0590     1.5277    -0.5291 N.2     
   2 N2            -0.0822     0.2491    -1.1091 N.pl3   
   3 C3             1.1948     1.9114    -0.4984 C.2     
   4 N4             1.9589     0.9475    -1.0255 N.2     
   5 C5             1.2029    -0.0626    -1.3990 C.2     
   6 N6             1.6431    -1.2350    -1.9832 N.pl3   
   7 C7            -1.2077    -0.5436    -1.3410 C.ar    
   8 N8             1.6572     3.1282     0.0026 N.pl3   
   9 C9             3.0333     3.3745     0.0836 C.ar    
  10 C10            3.5138     4.6735    -0.0238 C.ar    
  11 C11            3.9167     2.3211     0.2767 C.ar    
  12 C12            5.2746     2.5633     0.3572 C.ar    
  13 C13            5.7566     3.8595     0.2445 C.ar    
  14 C14            4.8720     4.9162     0.0562 C.ar    
  15 N15           -1.1864    -1.4607    -2.2967 N.ar    
  16 N16           -2.1983    -2.2096    -2.5570 N.ar    
  17 C17           -3.3306    -2.1060    -1.8800 C.ar    
  18 C18           -3.4383    -1.1799    -0.8386 C.ar    
  19 C19           -2.3546    -0.3737    -0.5613 C.ar    
  20 C20           -4.5156    -2.9299    -2.2134 C.ar    
  21 C21           -5.7517    -2.3010    -2.3712 C.ar    
  22 C22           -5.8379    -0.8038    -2.2547 C.3     
  23 C23           -5.7907    -0.3552    -0.7966 C.3     
  24 C24           -4.7035    -1.1078    -0.0341 C.3     
  25 C25           -4.4120    -4.3082    -2.3649 C.ar    
  26 C26           -5.5405    -5.0511    -2.6531 C.ar    
  27 C27           -6.7671    -4.4266    -2.7881 C.ar    
  28 C28           -6.8730    -3.0537    -2.6466 C.ar    
  29 F29            5.3406     6.1785    -0.0540 F       
  30 N30            7.1339     4.1047     0.3266 N.3     
  31 C31            7.6709     3.6637     1.6211 C.3     
  32 C32            9.1394     4.0769     1.7273 C.3     
  33 C33            9.9275     3.4325     0.5833 C.3     
  34 C34            9.3250     3.8767    -0.7511 C.3     
  35 C35            7.8478     3.4760    -0.7915 C.3     
  36 C36            9.7187     3.6114     3.0638 C.3     
  37 C37           11.1852     4.0403     3.1554 C.3     
  38 C38           11.9771     3.4146     2.0060 C.3     
  39 C39           11.3899     3.8711     0.6681 C.3     
  40 H40            2.5891    -1.3674    -2.1521 H       
  41 H41            1.0061    -1.9257    -2.2244 H       
  42 H42            1.0256     3.8039     0.2949 H       
  43 H43            2.8262     5.4935    -0.1700 H       
  44 H44            3.5423     1.3119     0.3645 H       
  45 H45            5.9611     1.7433     0.5082 H       
  46 H46           -2.3935     0.3668     0.2239 H       
  47 H47           -5.0027    -0.3556    -2.7929 H       
  48 H48           -6.7722    -0.4646    -2.7020 H       
  49 H49           -5.5823     0.7140    -0.7567 H       
  50 H50           -6.7563    -0.5496    -0.3299 H       
  51 H51           -5.0502    -2.1187     0.1800 H       
  52 H52           -4.5022    -0.5924     0.9050 H       
  53 H53           -3.4540    -4.7954    -2.2581 H       
  54 H54           -5.4646    -6.1217    -2.7735 H       
  55 H55           -7.6474    -5.0135    -3.0050 H       
  56 H56           -7.8340    -2.5724    -2.7525 H       
  57 H57            7.1032     4.1277     2.4276 H       
  58 H58            7.5918     2.5792     1.6973 H       
  59 H59            9.2175     5.1618     1.6562 H       
  60 H60            9.8672     2.3474     0.6663 H       
  61 H61            9.4119     4.9588    -0.8481 H       
  62 H62            9.8565     3.3923    -1.5702 H       
  63 H63            7.7637     2.3922    -0.7121 H       
  64 H64            7.4084     3.8051    -1.7332 H       
  65 H65            9.1560     4.0623     3.8812 H       
  66 H66            9.6522     2.5255     3.1308 H       
  67 H67           11.2502     5.1265     3.0917 H       
  68 H68           11.6017     3.7076     4.1062 H       
  69 H69           13.0191     3.7278     2.0706 H       
  70 H70           11.9203     2.3283     2.0754 H       
  71 H71           11.9530     3.4205    -0.1492 H       
  72 H72           11.4489     4.9571     0.5963 H       
@<TRIPOS>BOND
   1    1    2 1
   2    1    3 2
   3    2    7 1
   4    2    5 1
   5    3    4 1
   6    3    8 1
   7    4    5 2
   8    5    6 1
   9    6   40 1
  10    6   41 1
  11    7   15 ar
  12    7   19 ar
  13    8    9 1
  14    8   42 1
  15    9   10 ar
  16    9   11 ar
  17   10   14 ar
  18   10   43 1
  19   11   12 ar
  20   11   44 1
  21   12   13 ar
  22   12   45 1
  23   13   14 ar
  24   13   30 1
  25   14   29 1
  26   15   16 ar
  27   16   17 ar
  28   17   18 ar
  29   17   20 1
  30   18   19 ar
  31   18   24 1
  32   19   46 1
  33   20   21 ar
  34   20   25 ar
  35   21   22 1
  36   21   28 ar
  37   22   23 1
  38   22   47 1
  39   22   48 1
  40   23   24 1
  41   23   49 1
  42   23   50 1
  43   24   51 1
  44   24   52 1
  45   25   26 ar
  46   25   53 1
  47   26   27 ar
  48   26   54 1
  49   27   28 ar
  50   27   55 1
  51   28   56 1
  52   30   31 1
  53   30   35 1
  54   31   32 1
  55   31   57 1
  56   31   58 1
  57   32   33 1
  58   32   36 1
  59   32   59 1
  60   33   34 1
  61   33   39 1
  62   33   60 1
  63   34   35 1
  64   34   61 1
  65   34   62 1
  66   35   63 1
  67   35   64 1
  68   36   37 1
  69   36   65 1
  70   36   66 1
  71   37   38 1
  72   37   67 1
  73   37   68 1
  74   38   39 1
  75   38   69 1
  76   38   70 1
  77   39   71 1
  78   39   72 1

#	End of record

