#	Name: ASD01840097
#	Creating user name:	WinNT
#	Creation time:	15. 06. 2019 19:37

#	Modifying user name:	WinNT
#	Modification time:	15. 06. 2019 19:37

#	Program:	/corina/corina34_cracker 3.40 0067  02.08.2006

@<TRIPOS>MOLECULE
ASD01840097
  39   41    0    0    0
SMALL
NO_CHARGES


@<TRIPOS>ATOM
   1 C1            -0.0168     1.3897     0.0097 C.ar    
   2 C2             0.0021    -0.0041     0.0020 C.ar    
   3 C3             1.2345    -0.6632    -0.0133 C.ar    
   4 C4             2.3882     0.1021    -0.0202 C.ar    
   5 C5             2.2854     1.4810    -0.0118 C.ar    
   6 N6             1.1077     2.0753     0.0026 N.ar    
   7 N7            -2.7975    -2.3167    -0.3481 N.pl3   
   8 N8            -1.4800    -1.9179    -0.6025 N.2     
   9 C9            -1.2647    -0.7749     0.0104 C.2     
  10 C10           -2.4606    -0.4109     0.6823 C.2     
  11 C11           -3.3814    -1.3880     0.4360 C.2     
  12 C12           -2.6638     0.7650     1.4739 C.1     
  13 C13           -2.8304     1.7291     2.1228 C.1     
  14 C14           -3.0392     2.9378     2.9365 C.3     
  15 C15           -4.4693     2.9458     3.4801 C.3     
  16 C16           -4.6864     4.2022     4.3259 C.3     
  17 C17           -6.0951     4.2101     4.8613 C.ar    
  18 C18           -6.3744     3.6217     6.0806 C.ar    
  19 C19           -7.6665     3.6289     6.5717 C.ar    
  20 C20           -8.6793     4.2250     5.8438 C.ar    
  21 C21           -8.3998     4.8142     4.6249 C.ar    
  22 C22           -7.1069     4.8108     4.1358 C.ar    
  23 H23           -0.9621     1.9120     0.0170 H       
  24 H24            1.2855    -1.7419    -0.0192 H       
  25 H25            3.3581    -0.3729    -0.0316 H       
  26 H26            3.1835     2.0809    -0.0171 H       
  27 H27           -3.2203    -3.1230    -0.6829 H       
  28 H28           -4.3965    -1.4130     0.8038 H       
  29 H29           -2.3344     2.9423     3.7680 H       
  30 H30           -2.8798     3.8227     2.3203 H       
  31 H31           -5.1741     2.9413     2.6487 H       
  32 H32           -4.6288     2.0610     4.0964 H       
  33 H33           -3.9816     4.2067     5.1574 H       
  34 H34           -4.5270     5.0871     3.7097 H       
  35 H35           -5.5831     3.1560     6.6493 H       
  36 H36           -7.8848     3.1685     7.5240 H       
  37 H37           -9.6889     4.2300     6.2272 H       
  38 H38           -9.1911     5.2796     4.0561 H       
  39 H39           -6.8879     5.2744     3.1853 H       
@<TRIPOS>BOND
   1    1    2 ar
   2    1    6 ar
   3    1   23 1
   4    2    3 ar
   5    2    9 1
   6    3    4 ar
   7    3   24 1
   8    4    5 ar
   9    4   25 1
  10    5    6 ar
  11    5   26 1
  12    7    8 1
  13    7   11 1
  14    7   27 1
  15    8    9 2
  16    9   10 1
  17   10   11 2
  18   10   12 1
  19   11   28 1
  20   12   13 3
  21   13   14 1
  22   14   15 1
  23   14   29 1
  24   14   30 1
  25   15   16 1
  26   15   31 1
  27   15   32 1
  28   16   17 1
  29   16   33 1
  30   16   34 1
  31   17   18 ar
  32   17   22 ar
  33   18   19 ar
  34   18   35 1
  35   19   20 ar
  36   19   36 1
  37   20   21 ar
  38   20   37 1
  39   21   22 ar
  40   21   38 1
  41   22   39 1

#	End of record

