#	Name: ASD01151002
#	Creating user name:	WinNT
#	Creation time:	15. 06. 2019 19:05

#	Modifying user name:	WinNT
#	Modification time:	15. 06. 2019 19:05

#	Program:	/corina/corina34_cracker 3.40 0067  02.08.2006

@<TRIPOS>MOLECULE
ASD01151002
  51   53    0    0    0
SMALL
NO_CHARGES


@<TRIPOS>ATOM
   1 C1            -0.0020     1.4199     0.1760 C.2     
   2 C2             0.0685     0.0370     0.0878 C.2     
   3 N3            -1.1733    -0.4137    -0.1241 N.2     
   4 C4            -2.0082     0.5911    -0.1734 C.2     
   5 N5            -1.3412     1.7440     0.0114 N.pl3   
   6 C6            -3.4939     0.4746    -0.3971 C.3     
   7 C7            -4.1907     0.2009     0.9372 C.3     
   8 C8            -1.9185     3.0903     0.0258 C.3     
   9 C9            -2.0299     3.6042    -1.3865 C.ar    
  10 C10           -3.2238     3.4854    -2.0731 C.ar    
  11 C11           -3.3260     3.9567    -3.3686 C.ar    
  12 C12           -2.2344     4.5472    -3.9774 C.ar    
  13 C13           -1.0408     4.6669    -3.2905 C.ar    
  14 C14           -0.9398     4.1995    -1.9935 C.ar    
  15 C15            1.0717     2.3163     0.3952 C.2     
  16 O16            2.2035     1.8893     0.5282 O.2     
  17 O17            0.8400     3.6446     0.4567 O.3     
  18 C18            1.9698     4.4905     0.6804 C.3     
  19 C19            1.5140     5.9505     0.7190 C.3     
  20 N20            1.2179    -0.7377     0.1990 N.am    
  21 C21            1.1395    -2.0789     0.0922 C.2     
  22 C22            2.3606    -2.9020     0.2103 C.ar    
  23 O23            0.0640    -2.6114    -0.1014 O.2     
  24 C24            2.2826    -4.2918     0.1001 C.ar    
  25 C25            3.4259    -5.0547     0.2113 C.ar    
  26 C26            4.6499    -4.4450     0.4320 C.ar    
  27 C27            4.7337    -3.0668     0.5422 C.ar    
  28 C28            3.5983    -2.2928     0.4270 C.ar    
  29 Cl29           6.0848    -5.4122     0.5714 Cl      
  30 H30           -3.8718     1.4054    -0.8202 H       
  31 H31           -3.6943    -0.3455    -1.0866 H       
  32 H32           -5.2708     0.2037     0.7903 H       
  33 H33           -3.8783    -0.7716     1.3175 H       
  34 H34           -3.9196     0.9757     1.6543 H       
  35 H35           -2.9091     3.0561     0.4791 H       
  36 H36           -1.2768     3.7547     0.6045 H       
  37 H37           -4.0766     3.0240    -1.5975 H       
  38 H38           -4.2585     3.8632    -3.9053 H       
  39 H39           -2.3140     4.9148    -4.9898 H       
  40 H40           -0.1878     5.1280    -3.7662 H       
  41 H41           -0.0073     4.2930    -1.4568 H       
  42 H42            2.4361     4.2302     1.6306 H       
  43 H43            2.6899     4.3559    -0.1266 H       
  44 H44            2.3758     6.5958     0.8896 H       
  45 H45            1.0477     6.2108    -0.2312 H       
  46 H46            0.7938     6.0852     1.5261 H       
  47 H47            2.0761    -0.3128     0.3535 H       
  48 H48            1.3287    -4.7683    -0.0715 H       
  49 H49            3.3668    -6.1297     0.1266 H       
  50 H50            5.6908    -2.5971     0.7146 H       
  51 H51            3.6648    -1.2183     0.5131 H       
@<TRIPOS>BOND
   1    1    2 2
   2    1   15 1
   3    1    5 1
   4    2    3 1
   5    2   20 1
   6    3    4 2
   7    4    5 1
   8    4    6 1
   9    5    8 1
  10    6    7 1
  11    6   30 1
  12    6   31 1
  13    7   32 1
  14    7   33 1
  15    7   34 1
  16    8    9 1
  17    8   35 1
  18    8   36 1
  19    9   10 ar
  20    9   14 ar
  21   10   11 ar
  22   10   37 1
  23   11   12 ar
  24   11   38 1
  25   12   13 ar
  26   12   39 1
  27   13   14 ar
  28   13   40 1
  29   14   41 1
  30   15   16 2
  31   15   17 1
  32   17   18 1
  33   18   19 1
  34   18   42 1
  35   18   43 1
  36   19   44 1
  37   19   45 1
  38   19   46 1
  39   20   21 am
  40   20   47 1
  41   21   22 1
  42   21   23 2
  43   22   24 ar
  44   22   28 ar
  45   24   25 ar
  46   24   48 1
  47   25   26 ar
  48   25   49 1
  49   26   27 ar
  50   26   29 1
  51   27   28 ar
  52   27   50 1
  53   28   51 1

#	End of record

