#	Name: ASD09610067
#	Creating user name:	WinNT
#	Creation time:	15. 06. 2019 21:22

#	Modifying user name:	WinNT
#	Modification time:	15. 06. 2019 21:22

#	Program:	/corina/corina34_cracker 3.40 0067  02.08.2006

@<TRIPOS>MOLECULE
ASD09610067
  56   58    0    0    0
SMALL
NO_CHARGES


@<TRIPOS>ATOM
   1 C1            -1.1567    -0.6958     0.0089 C.2     
   2 N2             0.0008    -0.0054     0.0073 N.am    
   3 O3            -1.1395    -1.9106    -0.0064 O.2     
   4 O4            -2.3320    -0.0395     0.0330 O.3     
   5 C5             1.2162    -0.6822     0.0976 C.ar    
   6 C6             2.4082     0.0248    -0.0136 C.ar    
   7 C7             3.6074    -0.6592     0.0779 C.ar    
   8 C8             3.5729    -2.0326     0.2782 C.ar    
   9 C9             2.3526    -2.6705     0.3795 C.ar    
  10 N10            1.2249    -1.9911     0.2937 N.ar    
  11 C11            2.3083    -4.1612     0.5965 C.3     
  12 O12            3.6348    -4.6898     0.5441 O.3     
  13 N13            3.6956    -6.1022     0.6255 N.2     
  14 C14            4.8503    -6.7019     0.6870 C.2     
  15 C15            4.9135    -8.1693     0.8843 C.ar    
  16 C16            3.7386    -8.9107     1.0044 C.ar    
  17 C17            3.8037   -10.2768     1.1874 C.ar    
  18 C18            5.0315   -10.9110     1.2519 C.ar    
  19 C19            6.2006   -10.1808     1.1339 C.ar    
  20 C20            6.1480    -8.8149     0.9447 C.ar    
  21 N21            6.7146    -5.5545    -0.5903 N.pl3   
  22 N22            7.7664    -4.8848    -0.2594 N.2     
  23 N23            7.8341    -4.8150     1.0237 N.2     
  24 N24            6.8323    -5.4351     1.5449 N.2     
  25 C25            6.0981    -5.9185     0.5600 C.2     
  26 C26            6.2679    -5.8583    -1.9520 C.3     
  27 C27           -3.5384    -0.8475     0.0332 C.3     
  28 C28           -4.7647     0.0670     0.0621 C.3     
  29 C29           -6.0359    -0.7845     0.0623 C.3     
  30 C30           -7.2622     0.1300     0.0913 C.3     
  31 C31           -8.5334    -0.7215     0.0915 C.3     
  32 H32           -0.0118     0.9624    -0.0567 H       
  33 H33            2.3982     1.0935    -0.1696 H       
  34 H34            4.5489    -0.1367    -0.0051 H       
  35 H35            4.4911    -2.5962     0.3537 H       
  36 H36            1.8708    -4.3735     1.5720 H       
  37 H37            1.7018    -4.6238    -0.1822 H       
  38 H38            2.7795    -8.4166     0.9545 H       
  39 H39            2.8945   -10.8520     1.2809 H       
  40 H40            5.0776   -11.9805     1.3953 H       
  41 H41            7.1562   -10.6813     1.1853 H       
  42 H42            7.0612    -8.2465     0.8483 H       
  43 H43            6.6325    -6.8435    -2.2427 H       
  44 H44            5.1785    -5.8490    -1.9876 H       
  45 H45            6.6602    -5.1085    -2.6390 H       
  46 H46           -3.5644    -1.4618    -0.8669 H       
  47 H47           -3.5444    -1.4913     0.9127 H       
  48 H48           -4.7387     0.6812     0.9622 H       
  49 H49           -4.7588     0.7107    -0.8174 H       
  50 H50           -6.0619    -1.3988    -0.8377 H       
  51 H51           -6.0419    -1.4282     0.9419 H       
  52 H52           -7.2362     0.7443     0.9913 H       
  53 H53           -7.2563     0.7738    -0.7883 H       
  54 H54           -9.4071    -0.0700     0.1121 H       
  55 H55           -8.5595    -1.3357    -0.8086 H       
  56 H56           -8.5394    -1.3652     0.9710 H       
@<TRIPOS>BOND
   1    1    2 am
   2    1    3 2
   3    1    4 1
   4    2    5 1
   5    2   32 1
   6    4   27 1
   7    5    6 ar
   8    5   10 ar
   9    6    7 ar
  10    6   33 1
  11    7    8 ar
  12    7   34 1
  13    8    9 ar
  14    8   35 1
  15    9   10 ar
  16    9   11 1
  17   11   12 1
  18   11   36 1
  19   11   37 1
  20   12   13 1
  21   13   14 2
  22   14   15 1
  23   14   25 1
  24   15   16 ar
  25   15   20 ar
  26   16   17 ar
  27   16   38 1
  28   17   18 ar
  29   17   39 1
  30   18   19 ar
  31   18   40 1
  32   19   20 ar
  33   19   41 1
  34   20   42 1
  35   21   22 1
  36   21   25 1
  37   21   26 1
  38   22   23 2
  39   23   24 1
  40   24   25 2
  41   26   43 1
  42   26   44 1
  43   26   45 1
  44   27   28 1
  45   27   46 1
  46   27   47 1
  47   28   29 1
  48   28   48 1
  49   28   49 1
  50   29   30 1
  51   29   50 1
  52   29   51 1
  53   30   31 1
  54   30   52 1
  55   30   53 1
  56   31   54 1
  57   31   55 1
  58   31   56 1

#	End of record

