#	Name: ASD09116038
#	Creating user name:	WinNT
#	Creation time:	15. 06. 2019 21:20

#	Modifying user name:	WinNT
#	Modification time:	15. 06. 2019 21:20

#	Program:	/corina/corina34_cracker 3.40 0067  02.08.2006

@<TRIPOS>MOLECULE
ASD09116038
  29   31    0    0    0
SMALL
NO_CHARGES


@<TRIPOS>ATOM
   1 C1            -0.0168     1.3900     0.0097 C.ar    
   2 C2             0.0021    -0.0041     0.0020 C.ar    
   3 C3            -1.3057    -0.7735    -0.0475 C.3     
   4 C4            -2.0442    -0.6167     1.2769 C.3     
   5 C5            -2.9191     0.6319     1.2839 C.3     
   6 C6            -2.1358     1.9165     1.3312 C.3     
   7 C7            -1.3142     2.0824     0.0730 C.2     
   8 C8             1.1817     2.1050     0.0021 C.ar    
   9 C9             2.3798     1.4182     0.0093 C.ar    
  10 C10            2.3909     0.0346     0.0244 C.ar    
  11 C11            1.2024    -0.6782     0.0217 C.ar    
  12 C12           -3.0322     3.1314     1.5367 C.3     
  13 C13           -3.6467     3.5534     0.2285 C.2     
  14 N14           -3.0137     3.3880    -0.8854 N.2     
  15 N15           -1.7568     2.7795    -0.9264 N.2     
  16 Cl16          -5.2268     4.2723     0.2171 Cl      
  17 H17           -1.9247    -0.3849    -0.8561 H       
  18 H18           -1.0991    -1.8289    -0.2248 H       
  19 H19           -2.6719    -1.4926     1.4407 H       
  20 H20           -1.3158    -0.5458     2.0847 H       
  21 H21           -3.5344     0.6315     0.3841 H       
  22 H22           -3.5765     0.5921     2.1524 H       
  23 H23           -1.4516     1.8656     2.1781 H       
  24 H24            1.1723     3.1848    -0.0097 H       
  25 H25            3.3121     1.9633     0.0028 H       
  26 H26            3.3327    -0.4938     0.0388 H       
  27 H27            1.2177    -1.7580     0.0349 H       
  28 H28           -3.8236     2.8807     2.2431 H       
  29 H29           -2.4397     3.9532     1.9389 H       
@<TRIPOS>BOND
   1    1    2 ar
   2    1    8 ar
   3    1    7 1
   4    2    3 1
   5    2   11 ar
   6    3    4 1
   7    3   17 1
   8    3   18 1
   9    4    5 1
  10    4   19 1
  11    4   20 1
  12    5    6 1
  13    5   21 1
  14    5   22 1
  15    6    7 1
  16    6   12 1
  17    6   23 1
  18    7   15 2
  19    8    9 ar
  20    8   24 1
  21    9   10 ar
  22    9   25 1
  23   10   11 ar
  24   10   26 1
  25   11   27 1
  26   12   13 1
  27   12   28 1
  28   12   29 1
  29   13   14 2
  30   13   16 1
  31   14   15 1

#	End of record

