#	Name: ASD01915131
#	Creating user name:	WinNT
#	Creation time:	15. 06. 2019 20:04

#	Modifying user name:	WinNT
#	Modification time:	15. 06. 2019 20:04

#	Program:	/corina/corina34_cracker 3.40 0067  02.08.2006

@<TRIPOS>MOLECULE
ASD01915131
  47   50    0    0    0
SMALL
NO_CHARGES


@<TRIPOS>ATOM
   1 C1            -0.2250     1.4610    -1.1258 C.ar    
   2 C2            -0.2365     0.0859    -1.2799 C.ar    
   3 C3             0.9605    -0.6059    -1.1438 C.ar    
   4 C4             2.1171     0.0948    -0.8609 C.ar    
   5 N5             2.0953     1.4067    -0.7198 N.ar    
   6 C6             0.9756     2.0995    -0.8421 C.ar    
   7 O7             0.9996     3.4476    -0.6888 O.3     
   8 C8             2.2648     4.0450    -0.3981 C.3     
   9 C9             2.0968     5.5365    -0.2631 C.2     
  10 C10            0.8950     6.2457    -0.3924 C.2     
  11 N11            3.0494     6.3999     0.0019 N.2     
  12 C12            1.2322     7.5541    -0.1921 C.2     
  13 C13            0.4246     8.7834    -0.1926 C.2     
  14 N14            2.5860     7.5868     0.0603 N.pl3   
  15 C15            3.2730     8.8498     0.3561 C.3     
  16 C16            2.5572     9.9929    -0.3620 C.3     
  17 N17            1.1093     9.9527    -0.1718 N.am    
  18 O18           -0.7913     8.7522    -0.2111 O.2     
  19 C19            3.2519     9.1016     1.8651 C.3     
  20 Cl20           1.0024    -2.3318    -1.3265 Cl      
  21 C21            0.4139    11.1491     0.0415 C.ar    
  22 C22            0.3170    12.0875    -0.9775 C.ar    
  23 C23           -0.3690    13.2672    -0.7663 C.ar    
  24 C24           -0.9608    13.5152     0.4636 C.ar    
  25 C25           -0.8640    12.5785     1.4822 C.ar    
  26 C26           -0.1841    11.3954     1.2704 C.ar    
  27 O27           -1.6357    14.6773     0.6710 O.3     
  28 C28           -2.2202    14.8667     1.9611 C.3     
  29 H29           -1.1366     2.0308    -1.2293 H       
  30 H30           -1.1551    -0.4376    -1.5005 H       
  31 H31            3.0505    -0.4377    -0.7537 H       
  32 H32            2.6533     3.6372     0.5350 H       
  33 H33            2.9627     3.8297    -1.2072 H       
  34 H34           -0.0850     5.8448    -0.6048 H       
  35 H35            4.3051     8.7924     0.0104 H       
  36 H36            2.9362    10.9411     0.0195 H       
  37 H37            2.7760     9.9315    -1.4280 H       
  38 H38            3.7592     8.2839     2.3770 H       
  39 H39            3.7622    10.0396     2.0841 H       
  40 H40            2.2194     9.1608     2.2092 H       
  41 H41            0.7782    11.8949    -1.9349 H       
  42 H42           -0.4444    13.9971    -1.5587 H       
  43 H43           -1.3244    12.7726     2.4397 H       
  44 H44           -0.1133    10.6640     2.0619 H       
  45 H45           -1.4391    14.8420     2.7210 H       
  46 H46           -2.7271    15.8312     1.9923 H       
  47 H47           -2.9401    14.0714     2.1541 H       
@<TRIPOS>BOND
   1    1    2 ar
   2    1    6 ar
   3    1   29 1
   4    2    3 ar
   5    2   30 1
   6    3    4 ar
   7    3   20 1
   8    4    5 ar
   9    4   31 1
  10    5    6 ar
  11    6    7 1
  12    7    8 1
  13    8    9 1
  14    8   32 1
  15    8   33 1
  16    9   11 2
  17    9   10 1
  18   10   12 2
  19   10   34 1
  20   11   14 1
  21   12   14 1
  22   12   13 1
  23   13   17 am
  24   13   18 2
  25   14   15 1
  26   15   16 1
  27   15   19 1
  28   15   35 1
  29   16   17 1
  30   16   36 1
  31   16   37 1
  32   17   21 1
  33   19   38 1
  34   19   39 1
  35   19   40 1
  36   21   22 ar
  37   21   26 ar
  38   22   23 ar
  39   22   41 1
  40   23   24 ar
  41   23   42 1
  42   24   25 ar
  43   24   27 1
  44   25   26 ar
  45   25   43 1
  46   26   44 1
  47   27   28 1
  48   28   45 1
  49   28   46 1
  50   28   47 1

#	End of record

