#	Name: ASD03331439
#	Creating user name:	WinNT
#	Creation time:	15. 06. 2019 20:39

#	Modifying user name:	WinNT
#	Modification time:	15. 06. 2019 20:39

#	Program:	/corina/corina34_cracker 3.40 0067  02.08.2006

@<TRIPOS>MOLECULE
ASD03331439
  73   77    0    0    0
SMALL
NO_CHARGES


@<TRIPOS>ATOM
   1 N1            -1.0191     1.2087    -0.7727 N.am    
   2 C2            -1.0926    -0.2586    -0.7529 C.3     
   3 C3            -1.9305    -0.7265    -1.9470 C.3     
   4 C4            -1.3452    -0.1437    -3.2354 C.3     
   5 C5            -1.3992     1.3846    -3.1766 C.3     
   6 C6            -0.5553     1.8764    -1.9965 C.3     
   7 C7             0.0865    -0.5902    -3.3832 C.2     
   8 O8             0.9897     0.1540    -3.0651 O.2     
   9 N9             0.3632    -1.8165    -3.8690 N.am    
  10 N10           -2.1265    -0.6172    -4.3857 N.3     
  11 C11           -1.6323    -0.0266    -5.6367 C.3     
  12 C12           -2.5179    -0.4795    -6.7993 C.3     
  13 C13           -2.2376     0.1233    -8.1773 C.3     
  14 C14           -1.8692    -1.3337    -7.8904 C.3     
  15 C15           -1.3758     1.9287     0.3094 C.2     
  16 O16           -1.8429     1.3710     1.2841 O.2     
  17 N17           -1.6067     5.5616     0.4740 N.pl3   
  18 C18           -2.1722     4.3331     0.5712 C.2     
  19 C19           -1.2000     3.3911     0.3115 C.2     
  20 C20            0.0026     4.0969     0.0470 C.2     
  21 C21           -0.2768     5.4210     0.1536 C.2     
  22 C22           -3.6136     4.0472     0.9052 C.3     
  23 C23           -4.4349     3.9930    -0.3845 C.3     
  24 C24           -5.8983     3.7027    -0.0454 C.3     
  25 O25           -6.6654     3.6521    -1.2500 O.3     
  26 C26           -2.2725     6.7801     0.6640 C.ar    
  27 C27           -2.0787     7.5036     1.8330 C.ar    
  28 C28           -2.7355     8.7044     2.0176 C.ar    
  29 C29           -3.5868     9.1863     1.0387 C.ar    
  30 C30           -3.7820     8.4669    -0.1272 C.ar    
  31 C31           -3.1226     7.2686    -0.3191 C.ar    
  32 Cl32          -4.4115    10.6957     1.2739 Cl      
  33 C33            0.6863     6.5260    -0.0423 C.ar    
  34 C34            1.9255     6.4981     0.6016 C.ar    
  35 C35            2.8203     7.5324     0.4149 C.ar    
  36 C36            2.4907     8.5964    -0.4094 C.ar    
  37 C37            1.2625     8.6286    -1.0499 C.ar    
  38 C38            0.3629     7.5973    -0.8754 C.ar    
  39 F39            3.3700     9.6062    -0.5889 F       
  40 Cl40           2.3392     5.1659     1.6349 Cl      
  41 H41           -0.0882    -0.6757    -0.8255 H       
  42 H42           -1.5614    -0.5885     0.1742 H       
  43 H43           -1.9132    -1.8151    -1.9993 H       
  44 H44           -2.9583    -0.3838    -1.8267 H       
  45 H45           -1.0038     1.7985    -4.1042 H       
  46 H46           -2.4320     1.7073    -3.0448 H       
  47 H47           -0.6696     2.9551    -1.8900 H       
  48 H48            0.4929     1.6333    -2.1705 H       
  49 H49           -0.3546    -2.3842    -4.1905 H       
  50 H50            1.2803    -2.1315    -3.8972 H       
  51 H51           -2.1226    -1.6250    -4.4354 H       
  52 H52           -1.6598     1.0604    -5.5611 H       
  53 H53           -0.6072    -0.3528    -5.8124 H       
  54 H54           -3.5562    -0.6915    -6.5444 H       
  55 H55           -3.0915     0.3075    -8.8292 H       
  56 H56           -1.4223     0.8425    -8.2557 H       
  57 H57           -0.8115    -1.5730    -7.7799 H       
  58 H58           -2.4808    -2.1081    -8.3535 H       
  59 H59            0.9612     3.6617    -0.1941 H       
  60 H60           -3.6839     3.0897     1.4213 H       
  61 H61           -4.0007     4.8365     1.5496 H       
  62 H62           -4.3646     4.9505    -0.9006 H       
  63 H63           -4.0478     3.2037    -1.0289 H       
  64 H64           -5.9687     2.7452     0.4706 H       
  65 H65           -6.2855     4.4920     0.5989 H       
  66 H66           -7.6051     3.4714    -1.1106 H       
  67 H67           -1.4150     7.1276     2.5976 H       
  68 H68           -2.5851     9.2675     2.9268 H       
  69 H69           -4.4474     8.8447    -0.8894 H       
  70 H70           -3.2719     6.7096    -1.2311 H       
  71 H71            3.7788     7.5125     0.9123 H       
  72 H72            1.0107     9.4606    -1.6909 H       
  73 H73           -0.5921     7.6215    -1.3791 H       
@<TRIPOS>BOND
   1    1    2 1
   2    1    6 1
   3    1   15 am
   4    2    3 1
   5    2   41 1
   6    2   42 1
   7    3    4 1
   8    3   43 1
   9    3   44 1
  10    4    5 1
  11    4    7 1
  12    4   10 1
  13    5    6 1
  14    5   45 1
  15    5   46 1
  16    6   47 1
  17    6   48 1
  18    7    8 2
  19    7    9 am
  20    9   49 1
  21    9   50 1
  22   10   11 1
  23   10   51 1
  24   11   12 1
  25   11   52 1
  26   11   53 1
  27   12   13 1
  28   12   14 1
  29   12   54 1
  30   13   14 1
  31   13   55 1
  32   13   56 1
  33   14   57 1
  34   14   58 1
  35   15   16 2
  36   15   19 1
  37   17   18 1
  38   17   21 1
  39   17   26 1
  40   18   19 2
  41   18   22 1
  42   19   20 1
  43   20   21 2
  44   20   59 1
  45   21   33 1
  46   22   23 1
  47   22   60 1
  48   22   61 1
  49   23   24 1
  50   23   62 1
  51   23   63 1
  52   24   25 1
  53   24   64 1
  54   24   65 1
  55   25   66 1
  56   26   27 ar
  57   26   31 ar
  58   27   28 ar
  59   27   67 1
  60   28   29 ar
  61   28   68 1
  62   29   30 ar
  63   29   32 1
  64   30   31 ar
  65   30   69 1
  66   31   70 1
  67   33   34 ar
  68   33   38 ar
  69   34   35 ar
  70   34   40 1
  71   35   36 ar
  72   35   71 1
  73   36   37 ar
  74   36   39 1
  75   37   38 ar
  76   37   72 1
  77   38   73 1

#	End of record

