#	Name: ASD03740199
#	Creating user name:	WinNT
#	Creation time:	15. 06. 2019 20:46

#	Modifying user name:	WinNT
#	Modification time:	15. 06. 2019 20:46

#	Program:	/corina/corina34_cracker 3.40 0067  02.08.2006

@<TRIPOS>MOLECULE
ASD03740199
  49   51    0    0    0
SMALL
NO_CHARGES


@<TRIPOS>ATOM
   1 C1            -0.0168     1.3849     0.0097 C.ar    
   2 C2             0.0021    -0.0041     0.0020 C.ar    
   3 C3            -1.1618    -0.7196     0.0088 C.ar    
   4 C4            -2.3848    -0.0537     0.0241 C.ar    
   5 C5            -2.4054     1.3545     0.0323 C.ar    
   6 C6            -1.2009     2.0643     0.0303 C.ar    
   7 N7            -3.6909    -0.4687     0.0340 N.pl3   
   8 N8            -4.5286     0.6512     0.0482 N.2     
   9 C9            -3.8151     1.7441     0.0477 C.2     
  10 O10           -4.2956     3.0156     0.0599 O.3     
  11 C11           -4.1385    -1.8636     0.0294 C.3     
  12 C12           -4.2784    -2.3509     1.4486 C.ar    
  13 C13           -5.4824    -2.2087     2.1127 C.ar    
  14 C14           -5.6107    -2.6556     3.4145 C.ar    
  15 C15           -4.5351    -3.2451     4.0521 C.ar    
  16 C16           -3.3314    -3.3882     3.3877 C.ar    
  17 C17           -3.2044    -2.9452     2.0844 C.ar    
  18 C18           -5.7159     3.1723     0.0740 C.3     
  19 C19           -6.0646     4.6620     0.0863 C.3     
  20 C20           -7.5853     4.8297     0.1014 C.3     
  21 C21            1.2821     2.1491     0.0014 C.3     
  22 N22           -7.9201     6.2600     0.1131 N.3     
  23 C23           -9.3573     6.4661    -0.1105 C.3     
  24 C24           -7.4864     6.8919     1.3663 C.3     
  25 H25            0.9482    -0.5247    -0.0098 H       
  26 H26           -1.1335    -1.7992     0.0021 H       
  27 H27           -1.2072     3.1442     0.0365 H       
  28 H28           -5.1018    -1.9345    -0.4757 H       
  29 H29           -3.4070    -2.4782    -0.4953 H       
  30 H30           -6.3227    -1.7481     1.6146 H       
  31 H31           -6.5512    -2.5439     3.9336 H       
  32 H32           -4.6352    -3.5937     5.0694 H       
  33 H33           -2.4910    -3.8484     3.8859 H       
  34 H34           -2.2639    -3.0569     1.5653 H       
  35 H35           -6.1417     2.7068    -0.8149 H       
  36 H36           -6.1252     2.6960     0.9649 H       
  37 H37           -5.6389     5.1275     0.9752 H       
  38 H38           -5.6554     5.1382    -0.8047 H       
  39 H39           -8.0111     4.3642    -0.7875 H       
  40 H40           -7.9946     4.3534     0.9923 H       
  41 H41            1.5854     2.3389    -1.0282 H       
  42 H42            1.1489     3.0976     0.5216 H       
  43 H43            2.0514     1.5635     0.5047 H       
  44 H44           -9.9226     5.9683     0.6774 H       
  45 H45           -9.5777     7.5335    -0.0969 H       
  46 H46           -9.6379     6.0494    -1.0778 H       
  47 H47           -6.4069     6.7847     1.4726 H       
  48 H48           -7.7464     7.9503     1.3486 H       
  49 H49           -7.9839     6.4095     2.2077 H       
@<TRIPOS>BOND
   1    1    2 ar
   2    1   21 1
   3    1    6 ar
   4    2    3 ar
   5    2   25 1
   6    3    4 ar
   7    3   26 1
   8    4    5 ar
   9    4    7 1
  10    5    6 ar
  11    5    9 1
  12    6   27 1
  13    7    8 1
  14    7   11 1
  15    8    9 2
  16    9   10 1
  17   10   18 1
  18   11   12 1
  19   11   28 1
  20   11   29 1
  21   12   13 ar
  22   12   17 ar
  23   13   14 ar
  24   13   30 1
  25   14   15 ar
  26   14   31 1
  27   15   16 ar
  28   15   32 1
  29   16   17 ar
  30   16   33 1
  31   17   34 1
  32   18   19 1
  33   18   35 1
  34   18   36 1
  35   19   20 1
  36   19   37 1
  37   19   38 1
  38   20   22 1
  39   20   39 1
  40   20   40 1
  41   21   41 1
  42   21   42 1
  43   21   43 1
  44   22   23 1
  45   22   24 1
  46   23   44 1
  47   23   45 1
  48   23   46 1
  49   24   47 1
  50   24   48 1
  51   24   49 1

#	End of record

