#	Name: ASD01915877
#	Creating user name:	WinNT
#	Creation time:	15. 06. 2019 20:06

#	Modifying user name:	WinNT
#	Modification time:	15. 06. 2019 20:06

#	Program:	/corina/corina34_cracker 3.40 0067  02.08.2006

@<TRIPOS>MOLECULE
ASD01915877
  29   31    0    0    0
SMALL
NO_CHARGES


@<TRIPOS>ATOM
   1 C1            -0.0168     1.3844     0.0097 C.2     
   2 C2             0.0021    -0.0041     0.0020 C.2     
   3 C3            -1.2981    -0.7973     0.0053 C.3     
   4 C4            -2.3789     0.0611    -0.6584 C.3     
   5 C5            -2.5216     1.3970     0.0712 C.3     
   6 C6            -1.2079     2.1451     0.0304 C.2     
   7 O7            -1.1774     3.3593     0.0140 O.2     
   8 S8             1.6371     1.9698    -0.0030 S.3     
   9 C9             2.2220     0.3082    -0.0145 C.2     
  10 N10            1.2027    -0.5139    -0.0094 N.2     
  11 C11            3.5995    -0.0832    -0.0273 C.1     
  12 C12            4.7287    -0.4040    -0.0379 C.1     
  13 C13            6.1062    -0.7953    -0.0508 C.ar    
  14 C14            6.4517    -2.1503    -0.0590 C.ar    
  15 C15            7.1125     0.1755    -0.0610 C.ar    
  16 C16            8.4365    -0.2092    -0.0738 C.ar    
  17 C17            8.7706    -1.5523    -0.0771 C.ar    
  18 C18            7.7803    -2.5192    -0.0719 C.ar    
  19 H19           -1.1665    -1.7225    -0.5557 H       
  20 H20           -1.5875    -1.0258     1.0311 H       
  21 H21           -2.1055     0.2452    -1.6974 H       
  22 H22           -3.3303    -0.4699    -0.6277 H       
  23 H23           -3.2944     1.9938    -0.4131 H       
  24 H24           -2.8019     1.2153     1.1087 H       
  25 H25            5.6800    -2.9059    -0.0550 H       
  26 H26            6.8533     1.2240    -0.0592 H       
  27 H27            9.2149     0.5394    -0.0817 H       
  28 H28            9.8094    -1.8475    -0.0879 H       
  29 H29            8.0489    -3.5652    -0.0745 H       
@<TRIPOS>BOND
   1    1    2 2
   2    1    8 1
   3    1    6 1
   4    2    3 1
   5    2   10 1
   6    3    4 1
   7    3   19 1
   8    3   20 1
   9    4    5 1
  10    4   21 1
  11    4   22 1
  12    5    6 1
  13    5   23 1
  14    5   24 1
  15    6    7 2
  16    8    9 1
  17    9   10 2
  18    9   11 1
  19   11   12 3
  20   12   13 1
  21   13   14 ar
  22   13   15 ar
  23   14   18 ar
  24   14   25 1
  25   15   16 ar
  26   15   26 1
  27   16   17 ar
  28   16   27 1
  29   17   18 ar
  30   17   28 1
  31   18   29 1

#	End of record

