#	Name: ASD08178109
#	Creating user name:	WinNT
#	Creation time:	15. 06. 2019 21:18

#	Modifying user name:	WinNT
#	Modification time:	15. 06. 2019 21:18

#	Program:	/corina/corina34_cracker 3.40 0067  02.08.2006

@<TRIPOS>MOLECULE
ASD08178109
  56   59    0    0    0
SMALL
NO_CHARGES


@<TRIPOS>ATOM
   1 C1            -0.0184     1.5028     0.0103 C.2     
   2 C2             0.0021    -0.0041     0.0020 C.3     
   3 C3             0.0221    -0.5218     1.4416 C.3     
   4 C4             0.0429    -2.0516     1.4332 C.3     
   5 C5             0.0630    -2.5693     2.8728 C.3     
   6 C6             0.0834    -4.0761     2.8645 C.2     
   7 N7             1.1396    -4.8258     2.8513 N.2     
   8 N8             0.9467    -6.0734     2.8463 N.2     
   9 C9            -0.2824    -6.4936     2.8547 C.2     
  10 S10           -1.3267    -5.1359     2.8788 S.3     
  11 N11           -0.6838    -7.8252     2.8506 N.am    
  12 N12            1.0171     2.2809     0.0046 N.2     
  13 C13            0.2391    -8.8073     2.8374 C.2     
  14 O14            1.4197    -8.5298     2.8290 O.2     
  15 C15           -0.1960   -10.2501     2.8329 C.3     
  16 C16            1.0193   -11.1412     2.8177 C.ar    
  17 N17            0.7904     3.5228     0.0134 N.2     
  18 C18           -0.4495     3.9094     0.0274 C.2     
  19 S19           -1.4568     2.5237     0.0218 S.3     
  20 C20            3.0045   -11.7475     1.8188 C.ar    
  21 C21            1.1708   -12.1063     3.7953 C.ar    
  22 C22            2.2925   -12.9209     3.7723 C.ar    
  23 C23            3.2237   -12.7333     2.7623 C.ar    
  24 N24            1.9231   -10.9945     1.8688 N.ar    
  25 N25           -0.8870     5.2295     0.0390 N.am    
  26 C26            0.0089     6.2364     0.0358 C.2     
  27 O27            1.1967     5.9912     0.0228 O.2     
  28 C28           -0.4651     7.6668     0.0485 C.3     
  29 C29            0.7256     8.5906     0.0419 C.ar    
  30 N30            1.6527     8.4654     0.9712 N.ar    
  31 C31            2.7113     9.2510     1.0049 C.ar    
  32 C32            2.8863    10.2425     0.0581 C.ar    
  33 C33            1.9322    10.4045    -0.9348 C.ar    
  34 C34            0.8359     9.5556    -0.9413 C.ar    
  35 H35           -0.8875    -0.3767    -0.5057 H       
  36 H36            0.8922    -0.3525    -0.5218 H       
  37 H37            0.9118    -0.1491     1.9494 H       
  38 H38           -0.8680    -0.1733     1.9655 H       
  39 H39           -0.8467    -2.4242     0.9255 H       
  40 H40            0.9330    -2.4000     0.9094 H       
  41 H41            0.9526    -2.1967     3.3806 H       
  42 H42           -0.8271    -2.2209     3.3967 H       
  43 H43           -1.6281    -8.0470     2.8573 H       
  44 H44           -0.7854   -10.4546     3.7267 H       
  45 H45           -0.8003   -10.4446     1.9469 H       
  46 H46            3.7228   -11.5981     1.0262 H       
  47 H47            0.4251   -12.2242     4.5676 H       
  48 H48            2.4376   -13.6833     4.5234 H       
  49 H49            4.1091   -13.3499     2.7134 H       
  50 H50           -1.8369     5.4256     0.0495 H       
  51 H51           -1.0758     7.8550    -0.8345 H       
  52 H52           -1.0583     7.8451     0.9454 H       
  53 H53            3.4500     9.1184     1.7816 H       
  54 H54            3.7551    10.8832     0.0914 H       
  55 H55            2.0426    11.1707    -1.6878 H       
  56 H56            0.0735     9.6529    -1.7000 H       
@<TRIPOS>BOND
   1    1    2 1
   2    1   12 2
   3    1   19 1
   4    2    3 1
   5    2   35 1
   6    2   36 1
   7    3    4 1
   8    3   37 1
   9    3   38 1
  10    4    5 1
  11    4   39 1
  12    4   40 1
  13    5    6 1
  14    5   41 1
  15    5   42 1
  16    6    7 2
  17    6   10 1
  18    7    8 1
  19    8    9 2
  20    9   10 1
  21    9   11 1
  22   11   13 am
  23   11   43 1
  24   12   17 1
  25   13   14 2
  26   13   15 1
  27   15   16 1
  28   15   44 1
  29   15   45 1
  30   16   21 ar
  31   16   24 ar
  32   17   18 2
  33   18   19 1
  34   18   25 1
  35   20   24 ar
  36   20   23 ar
  37   20   46 1
  38   21   22 ar
  39   21   47 1
  40   22   23 ar
  41   22   48 1
  42   23   49 1
  43   25   26 am
  44   25   50 1
  45   26   27 2
  46   26   28 1
  47   28   29 1
  48   28   51 1
  49   28   52 1
  50   29   30 ar
  51   29   34 ar
  52   30   31 ar
  53   31   32 ar
  54   31   53 1
  55   32   33 ar
  56   32   54 1
  57   33   34 ar
  58   33   55 1
  59   34   56 1

#	End of record

