#	Name: ASD01918533
#	Creating user name:	WinNT
#	Creation time:	15. 06. 2019 20:11

#	Modifying user name:	WinNT
#	Modification time:	15. 06. 2019 20:11

#	Program:	/corina/corina34_cracker 3.40 0067  02.08.2006

@<TRIPOS>MOLECULE
ASD01918533
  48   50    0    0    0
SMALL
NO_CHARGES


@<TRIPOS>ATOM
   1 C1             0.5096    -0.1842    -1.3320 C.ar    
   2 C2             0.6458    -1.5084    -1.7046 C.ar    
   3 C3            -0.4773    -2.2868    -1.9134 C.ar    
   4 C4            -1.7367    -1.7410    -1.7493 C.ar    
   5 C5            -1.8730    -0.4170    -1.3759 C.ar    
   6 C6            -0.7498     0.3601    -1.1628 C.ar    
   7 C7             1.7340     0.6643    -1.1044 C.3     
   8 O8             2.1101     1.2963    -2.3296 O.3     
   9 C9             3.1987     2.0995    -2.2976 C.2     
  10 C10            3.6229     2.7447    -3.4436 C.2     
  11 C11            4.7501     3.5723    -3.3569 C.2     
  12 N12            5.3770     3.7158    -2.1642 N.am    
  13 C13            4.9312     3.0502    -1.0838 C.2     
  14 N14            3.8702     2.2804    -1.1558 N.2     
  15 C15            6.5307     4.6170    -2.1063 C.3     
  16 C16            7.3719     4.3249    -0.8645 C.3     
  17 O17            6.4989     4.2819     0.2708 O.3     
  18 C18            5.6261     3.1532     0.2522 C.3     
  19 O19            5.1632     4.1575    -4.3451 O.2     
  20 C20            7.3897     4.4208    -3.3572 C.3     
  21 C21            8.3086     5.6304    -3.5398 C.3     
  22 C22            9.1256     5.8473    -2.2645 C.3     
  23 C23            9.2550     5.3790    -4.7153 C.3     
  24 C24            7.4639     6.8745    -3.8221 C.3     
  25 H25            1.6298    -1.9349    -1.8328 H       
  26 H26           -0.3709    -3.3211    -2.2052 H       
  27 H27           -2.6142    -2.3489    -1.9132 H       
  28 H28           -2.8569     0.0095    -1.2480 H       
  29 H29           -0.8562     1.3945    -0.8710 H       
  30 H30            1.5146     1.4252    -0.3554 H       
  31 H31            2.5522     0.0350    -0.7541 H       
  32 H32            3.1005     2.6144    -4.3798 H       
  33 H33            6.1810     5.6488    -2.0706 H       
  34 H34            7.8738     3.3641    -0.9784 H       
  35 H35            8.1125     5.1131    -0.7287 H       
  36 H36            4.8801     3.2610     1.0395 H       
  37 H37            6.2049     2.2466     0.4287 H       
  38 H38            7.9929     3.5197    -3.2460 H       
  39 H39            6.7437     4.3202    -4.2294 H       
  40 H40            9.4476     4.8832    -1.8709 H       
  41 H41            9.9999     6.4571    -2.4925 H       
  42 H42            8.5114     6.3562    -1.5217 H       
  43 H43            8.6730     5.2245    -5.6238 H       
  44 H44            9.9097     6.2408    -4.8454 H       
  45 H45            9.8568     4.4927    -4.5142 H       
  46 H46            6.8884     7.1324    -2.9331 H       
  47 H47            8.1180     7.7057    -4.0853 H       
  48 H48            6.7835     6.6716    -4.6492 H       
@<TRIPOS>BOND
   1    1    2 ar
   2    1    7 1
   3    1    6 ar
   4    2    3 ar
   5    2   25 1
   6    3    4 ar
   7    3   26 1
   8    4    5 ar
   9    4   27 1
  10    5    6 ar
  11    5   28 1
  12    6   29 1
  13    7    8 1
  14    7   30 1
  15    7   31 1
  16    8    9 1
  17    9   10 2
  18    9   14 1
  19   10   11 1
  20   10   32 1
  21   11   12 am
  22   11   19 2
  23   12   13 1
  24   12   15 1
  25   13   14 2
  26   13   18 1
  27   15   16 1
  28   15   20 1
  29   15   33 1
  30   16   17 1
  31   16   34 1
  32   16   35 1
  33   17   18 1
  34   18   36 1
  35   18   37 1
  36   20   21 1
  37   20   38 1
  38   20   39 1
  39   21   22 1
  40   21   23 1
  41   21   24 1
  42   22   40 1
  43   22   41 1
  44   22   42 1
  45   23   43 1
  46   23   44 1
  47   23   45 1
  48   24   46 1
  49   24   47 1
  50   24   48 1

#	End of record

