#	Name: ASD01913302
#	Creating user name:	WinNT
#	Creation time:	15. 06. 2019 20:01

#	Modifying user name:	WinNT
#	Modification time:	15. 06. 2019 20:01

#	Program:	/corina/corina34_cracker 3.40 0067  02.08.2006

@<TRIPOS>MOLECULE
ASD01913302
  42   44    0    0    0
SMALL
NO_CHARGES


@<TRIPOS>ATOM
   1 C1            -0.0168     1.3913     0.0097 C.ar    
   2 C2             0.0021    -0.0041     0.0020 C.ar    
   3 C3             1.2387    -0.6685    -0.0133 C.ar    
   4 C4             2.3914     0.0917    -0.0202 C.ar    
   5 C5             2.2898     1.4831    -0.0118 C.ar    
   6 N6             1.1073     2.0788     0.0027 N.ar    
   7 N7             3.4458     2.2548    -0.0187 N.pl3   
   8 C8             3.3508     3.7167    -0.0099 C.3     
   9 C9            -1.2219    -0.7473     0.0102 C.1     
  10 C10           -2.2254    -1.3566     0.0168 C.1     
  11 C11           -3.4494    -2.0998     0.0250 C.ar    
  12 C12           -3.4226    -3.4970     0.0172 C.ar    
  13 C13           -4.6055    -4.2060     0.0251 C.ar    
  14 C14           -5.8169    -3.5373     0.0402 C.ar    
  15 C15           -5.8513    -2.1539     0.0479 C.ar    
  16 C16           -4.6765    -1.4315     0.0465 C.ar    
  17 C17            4.6280     4.3072     0.5908 C.3     
  18 C18            4.5288     5.8340     0.5999 C.3     
  19 C19            4.3565     6.3424    -0.8328 C.3     
  20 C20            3.0793     5.7519    -1.4335 C.3     
  21 C21            3.1786     4.2252    -1.4426 C.3     
  22 O22            4.2638     7.7684    -0.8243 O.3     
  23 F23            3.6035    -0.5049    -0.0345 F       
  24 H24           -0.9625     1.9130     0.0170 H       
  25 H25            1.2872    -1.7474    -0.0192 H       
  26 H26            4.3155     1.8254    -0.0293 H       
  27 H27            2.4928     4.0214     0.5894 H       
  28 H28           -2.4779    -4.0202     0.0047 H       
  29 H29           -4.5863    -5.2858     0.0191 H       
  30 H30           -6.7400    -4.0978     0.0456 H       
  31 H31           -6.8005    -1.6388     0.0594 H       
  32 H32           -4.7049    -0.3518     0.0529 H       
  33 H33            4.7507     3.9450     1.6114 H       
  34 H34            5.4860     4.0025    -0.0085 H       
  35 H35            3.6708     6.1387     1.1992 H       
  36 H36            5.4387     6.2547     1.0278 H       
  37 H37            5.2145     6.0377    -1.4321 H       
  38 H38            2.2213     6.0566    -0.8342 H       
  39 H39            2.9566     6.1141    -2.4542 H       
  40 H40            4.0365     3.9204    -2.0419 H       
  41 H41            2.2686     3.8044    -1.8706 H       
  42 H42            4.1531     8.1606    -1.7012 H       
@<TRIPOS>BOND
   1    1    2 ar
   2    1    6 ar
   3    1   24 1
   4    2    3 ar
   5    2    9 1
   6    3    4 ar
   7    3   25 1
   8    4    5 ar
   9    4   23 1
  10    5    6 ar
  11    5    7 1
  12    7    8 1
  13    7   26 1
  14    8   17 1
  15    8   21 1
  16    8   27 1
  17    9   10 3
  18   10   11 1
  19   11   12 ar
  20   11   16 ar
  21   12   13 ar
  22   12   28 1
  23   13   14 ar
  24   13   29 1
  25   14   15 ar
  26   14   30 1
  27   15   16 ar
  28   15   31 1
  29   16   32 1
  30   17   18 1
  31   17   33 1
  32   17   34 1
  33   18   19 1
  34   18   35 1
  35   18   36 1
  36   19   20 1
  37   19   22 1
  38   19   37 1
  39   20   21 1
  40   20   38 1
  41   20   39 1
  42   21   40 1
  43   21   41 1
  44   22   42 1

#	End of record

