#	Name: ASD00431237
#	Creating user name:	WinNT
#	Creation time:	15. 06. 2019 18:35

#	Modifying user name:	WinNT
#	Modification time:	15. 06. 2019 18:35

#	Program:	/corina/corina34_cracker 3.40 0067  02.08.2006

@<TRIPOS>MOLECULE
ASD00431237
  45   48    0    0    0
SMALL
NO_CHARGES


@<TRIPOS>ATOM
   1 C1            -0.0899     1.7351    -0.0394 C.3     
   2 C2            -0.1289     0.2097    -0.1506 C.3     
   3 C3             1.3429     2.2021    -0.0380 C.2     
   4 C4             2.0389     2.5411     1.0502 C.2     
   5 C5             3.3389     2.9397     0.8129 C.2     
   6 C6             3.7039     2.9242    -0.4871 C.2     
   7 S7             2.3513     2.3752    -1.4682 S.3     
   8 S8             6.4005     3.8486    -0.0388 S.3     
   9 C9             7.3463     4.0110    -1.4534 C.2     
  10 N10            6.6555     3.6784    -2.4985 N.2     
  11 C11            5.4119     3.2939    -2.2986 C.2     
  12 C12            5.0304     3.3031    -1.0028 C.2     
  13 O13            8.6349     4.4288    -1.4787 O.3     
  14 C14            9.3049     4.3609    -2.6598 C.ar    
  15 C15            8.7273     3.7252    -3.7494 C.ar    
  16 C16            9.4079     3.6561    -4.9491 C.ar    
  17 C17           10.6693     4.2221    -5.0646 C.ar    
  18 C18           11.2469     4.8578    -3.9751 C.ar    
  19 C19           10.5637     4.9322    -2.7771 C.ar    
  20 O20           11.3396     4.1533    -6.2454 O.3     
  21 C21           10.7815     3.4353    -7.2550 C.ar    
  22 C22            9.7059     3.9519    -7.9632 C.ar    
  23 C23            9.1403     3.2199    -8.9891 C.ar    
  24 C24            9.6450     1.9733    -9.3104 C.ar    
  25 C25           10.7167     1.4561    -8.6062 C.ar    
  26 C26           11.2897     2.1865    -7.5832 C.ar    
  27 N27           -0.7969     2.3277    -1.1826 N.3     
  28 H28           -0.5737     2.0444     0.8871 H       
  29 H29            0.3957    -0.2300     0.6977 H       
  30 H30           -1.1653    -0.1281    -0.1516 H       
  31 H31            0.3549    -0.0996    -1.0770 H       
  32 H32            1.6155     2.5062     2.0432 H       
  33 H33            4.0103     3.2403     1.6036 H       
  34 H34            4.7536     2.9969    -3.1016 H       
  35 H35            7.7457     3.2840    -3.6592 H       
  36 H36            8.9583     3.1613    -5.7973 H       
  37 H37           12.2290     5.2980    -4.0649 H       
  38 H38           11.0113     5.4312    -1.9303 H       
  39 H39            9.3111     4.9254    -7.7124 H       
  40 H40            8.3029     3.6214    -9.5404 H       
  41 H41            9.2011     1.4024   -10.1125 H       
  42 H42           11.1090     0.4822    -8.8591 H       
  43 H43           12.1298     1.7842    -7.0366 H       
  44 H44           -0.8411     3.3323    -1.0992 H       
  45 H45           -0.3671     2.0557    -2.0540 H       
@<TRIPOS>BOND
   1    1    2 1
   2    1    3 1
   3    1   27 1
   4    1   28 1
   5    2   29 1
   6    2   30 1
   7    2   31 1
   8    3    4 2
   9    3    7 1
  10    4    5 1
  11    4   32 1
  12    5    6 2
  13    5   33 1
  14    6    7 1
  15    6   12 1
  16    8    9 1
  17    8   12 1
  18    9   10 2
  19    9   13 1
  20   10   11 1
  21   11   12 2
  22   11   34 1
  23   13   14 1
  24   14   15 ar
  25   14   19 ar
  26   15   16 ar
  27   15   35 1
  28   16   17 ar
  29   16   36 1
  30   17   18 ar
  31   17   20 1
  32   18   19 ar
  33   18   37 1
  34   19   38 1
  35   20   21 1
  36   21   22 ar
  37   21   26 ar
  38   22   23 ar
  39   22   39 1
  40   23   24 ar
  41   23   40 1
  42   24   25 ar
  43   24   41 1
  44   25   26 ar
  45   25   42 1
  46   26   43 1
  47   27   44 1
  48   27   45 1

#	End of record

