#	Name: ASD04560020
#	Creating user name:	WinNT
#	Creation time:	15. 06. 2019 20:49

#	Modifying user name:	WinNT
#	Modification time:	15. 06. 2019 20:49

#	Program:	/corina/corina34_cracker 3.40 0067  02.08.2006

@<TRIPOS>MOLECULE
ASD04560020
  60   63    0    0    0
SMALL
NO_CHARGES


@<TRIPOS>ATOM
   1 C1            -0.0173     1.3666     0.0244 C.ar    
   2 C2             0.0010    -0.0041     0.0241 C.ar    
   3 C3             1.2157    -0.6859     0.0136 C.ar    
   4 C4             2.4151     0.0225     0.0039 C.ar    
   5 C5             2.4031     1.3933     0.0042 C.ar    
   6 C6             1.1852     2.0805     0.0143 C.ar    
   7 C7             1.1690     3.5549     0.0141 C.2     
   8 O8             2.2154     4.1746     0.0053 O.2     
   9 N9            -0.0055     4.2159     0.0238 N.am    
  10 C10           -0.0226     5.6108     0.1367 C.ar    
  11 C11           -0.9921     6.3504    -0.5279 C.ar    
  12 C12            0.9079     7.6335     1.0278 C.ar    
  13 C13            0.9265     6.2569     0.9179 C.ar    
  14 F14           -0.0727     9.7160     0.4686 F       
  15 S15            1.2351    -2.4478     0.0132 S.3     
  16 C16           -1.0071     7.7268    -0.4152 C.ar    
  17 C17           -0.0563     8.3694     0.3597 C.ar    
  18 C18            3.1932    -4.3318    -0.0038 C.ar    
  19 C19            3.2692    -5.0246    -1.2118 C.ar    
  20 B20            3.1550    -4.2495    -2.5723 Du      
  21 C21            3.4475    -6.4081    -1.2078 C.ar    
  22 C22            3.5478    -7.0845    -0.0111 C.ar    
  23 C23            3.4712    -6.3916     1.1880 C.ar    
  24 C24            3.2944    -5.0163     1.1886 C.ar    
  25 O25            3.2110    -4.7962    -3.8976 O.3     
  26 C26            3.9762    -3.8365    -4.6566 C.3     
  27 C27            3.8136    -2.5098    -3.8872 C.3     
  28 O28            2.9655    -2.8402    -2.7627 O.3     
  29 C29            5.1742    -2.0037    -3.4037 C.3     
  30 C30            3.0069    -2.8364    -0.0020 C.3     
  31 F31            3.5690    -7.0586     2.3587 F       
  32 C32            3.1365    -1.4604    -4.7710 C.3     
  33 C33            5.4492    -4.2476    -4.7051 C.3     
  34 C34            3.4115    -3.7043    -6.0724 C.3     
  35 H35           -0.9594     1.8947     0.0280 H       
  36 H36           -0.9274    -0.5560     0.0322 H       
  37 H37            3.3553    -0.5088    -0.0035 H       
  38 H38            3.3333     1.9420    -0.0029 H       
  39 H39           -0.8390     3.7249    -0.0474 H       
  40 H40           -1.7336     5.8496    -1.1326 H       
  41 H41            1.6459     8.1363     1.6353 H       
  42 H42            1.6784     5.6833     1.4393 H       
  43 H43           -1.7607     8.3024    -0.9321 H       
  44 H44            3.5066    -6.9484    -2.1410 H       
  45 H45            3.6858    -8.1556    -0.0071 H       
  46 H46            3.2353    -4.4807     2.1245 H       
  47 H47            5.8263    -1.8391    -4.2615 H       
  48 H48            5.0420    -1.0668    -2.8627 H       
  49 H49            5.6235    -2.7448    -2.7427 H       
  50 H50            3.4643    -2.4122    -0.8959 H       
  51 H51            3.4794    -2.4125     0.8840 H       
  52 H52            2.1522    -1.8192    -5.0719 H       
  53 H53            3.0292    -0.5301    -4.2133 H       
  54 H54            3.7457    -1.2843    -5.6576 H       
  55 H55            5.5405    -5.2141    -5.2007 H       
  56 H56            6.0169    -3.5001    -5.2592 H       
  57 H57            5.8394    -4.3214    -3.6901 H       
  58 H58            2.3674    -3.3957    -6.0198 H       
  59 H59            3.9836    -2.9580    -6.6236 H       
  60 H60            3.4811    -4.6651    -6.5825 H       
@<TRIPOS>BOND
   1    1    2 ar
   2    1    6 ar
   3    1   35 1
   4    2    3 ar
   5    2   36 1
   6    3    4 ar
   7    3   15 1
   8    4    5 ar
   9    4   37 1
  10    5    6 ar
  11    5   38 1
  12    6    7 1
  13    7    8 2
  14    7    9 am
  15    9   10 1
  16    9   39 1
  17   10   11 ar
  18   10   13 ar
  19   11   16 ar
  20   11   40 1
  21   12   13 ar
  22   12   17 ar
  23   12   41 1
  24   13   42 1
  25   14   17 1
  26   15   30 1
  27   16   17 ar
  28   16   43 1
  29   18   19 ar
  30   18   24 ar
  31   18   30 1
  32   19   20 1
  33   19   21 ar
  34   20   25 1
  35   20   28 1
  36   21   22 ar
  37   21   44 1
  38   22   23 ar
  39   22   45 1
  40   23   24 ar
  41   23   31 1
  42   24   46 1
  43   25   26 1
  44   26   27 1
  45   26   33 1
  46   26   34 1
  47   27   28 1
  48   27   29 1
  49   27   32 1
  50   29   47 1
  51   29   48 1
  52   29   49 1
  53   30   50 1
  54   30   51 1
  55   32   52 1
  56   32   53 1
  57   32   54 1
  58   33   55 1
  59   33   56 1
  60   33   57 1
  61   34   58 1
  62   34   59 1
  63   34   60 1

#	End of record

