#	Name: ASD01411091
#	Creating user name:	WinNT
#	Creation time:	15. 06. 2019 19:19

#	Modifying user name:	WinNT
#	Modification time:	15. 06. 2019 19:19

#	Program:	/corina/corina34_cracker 3.40 0067  02.08.2006

@<TRIPOS>MOLECULE
ASD01411091
  48   50    0    0    0
SMALL
NO_CHARGES


@<TRIPOS>ATOM
   1 C1             0.0763     1.5746     0.5486 C.2     
   2 C2             0.0900     0.1462     0.7669 C.ar    
   3 C3             1.3433     1.9461     0.2514 C.2     
   4 C4            -1.0730     2.5484     0.6212 C.3     
   5 C5             1.4352    -0.2643     0.5763 C.ar    
   6 C6            -0.9091    -0.7762     1.0979 C.ar    
   7 C7             1.7253     3.3774    -0.0442 C.3     
   8 N8             2.1620     0.8511     0.2669 N.pl3   
   9 C9            -0.4860     3.9653     0.6948 C.3     
  10 C10            1.7972    -1.6032     0.7141 C.ar    
  11 C11           -0.5208    -2.0981     1.2283 C.ar    
  12 Cl12          -2.5574    -0.2853     1.3344 Cl      
  13 O13            0.5252     4.1157    -0.3057 O.3     
  14 C14            2.4486     3.9785     1.1627 C.3     
  15 C15            2.6394     3.4252    -1.2702 C.3     
  16 C16            0.7920    -2.4980     1.0417 C.ar    
  17 Cl17           3.4365    -2.1265     0.4846 Cl      
  18 C18            1.9060     2.8733    -2.4654 C.2     
  19 H19            3.1148     0.8639     0.0854 H       
  20 O20            0.7380     2.5779    -2.3740 O.2     
  21 O21            2.5504     2.7099    -3.6315 O.3     
  22 H22            2.0381     2.3527    -4.3699 H       
  23 C23            3.4135     6.0750     2.1197 C.3     
  24 C24            2.8047     5.4372     0.8693 C.3     
  25 C25            3.7697     7.5337     1.8264 C.3     
  26 C26            4.3785     8.1715     3.0768 C.3     
  27 C27            4.7346     9.6302     2.7834 C.3     
  28 H28           -1.6946     2.4524    -0.2690 H       
  29 H29           -1.6694     2.3494     1.5116 H       
  30 H30           -1.2773     4.6957     0.5258 H       
  31 H31           -0.0472     4.1262     1.6795 H       
  32 H32           -1.2634    -2.8398     1.4832 H       
  33 H33            1.7983     3.9318     2.0362 H       
  34 H34            3.3604     3.4140     1.3579 H       
  35 H35            2.9299     4.4572    -1.4668 H       
  36 H36            3.5307     2.8264    -1.0824 H       
  37 H37            1.0404    -3.5429     1.1557 H       
  38 H38            2.6925     6.0341     2.9362 H       
  39 H39            4.3146     5.5309     2.4031 H       
  40 H40            3.5257     5.4781     0.0529 H       
  41 H41            1.9037     5.9813     0.5860 H       
  42 H42            4.4907     7.5746     1.0099 H       
  43 H43            2.8687     8.0778     1.5430 H       
  44 H44            3.6575     8.1306     3.8933 H       
  45 H45            5.2795     7.6274     3.3602 H       
  46 H46            5.1683    10.0846     3.6743 H       
  47 H47            5.4556     9.6711     1.9670 H       
  48 H48            3.8336    10.1743     2.5001 H       
@<TRIPOS>BOND
   1    1    2 1
   2    1    3 2
   3    1    4 1
   4    2    5 ar
   5    2    6 ar
   6    3    7 1
   7    3    8 1
   8    4    9 1
   9    4   28 1
  10    4   29 1
  11    5   10 ar
  12    5    8 1
  13    6   11 ar
  14    6   12 1
  15    7   14 1
  16    7   15 1
  17    7   13 1
  18    8   19 1
  19    9   13 1
  20    9   30 1
  21    9   31 1
  22   10   16 ar
  23   10   17 1
  24   11   16 ar
  25   11   32 1
  26   14   24 1
  27   14   33 1
  28   14   34 1
  29   15   18 1
  30   15   35 1
  31   15   36 1
  32   16   37 1
  33   18   20 2
  34   18   21 1
  35   21   22 1
  36   23   24 1
  37   23   25 1
  38   23   38 1
  39   23   39 1
  40   24   40 1
  41   24   41 1
  42   25   26 1
  43   25   42 1
  44   25   43 1
  45   26   27 1
  46   26   44 1
  47   26   45 1
  48   27   46 1
  49   27   47 1
  50   27   48 1

#	End of record

