#	Name: ASD08070522
#	Creating user name:	WinNT
#	Creation time:	15. 06. 2019 21:15

#	Modifying user name:	WinNT
#	Modification time:	15. 06. 2019 21:15

#	Program:	/corina/corina34_cracker 3.40 0067  02.08.2006

@<TRIPOS>MOLECULE
ASD08070522
  40   41    0    0    0
SMALL
NO_CHARGES


@<TRIPOS>ATOM
   1 C1            -0.0169     1.3966     0.0097 C.ar    
   2 C2             0.0021    -0.0041     0.0020 C.ar    
   3 C3             1.3060    -0.5251    -0.0132 C.2     
   4 C4             2.2893     0.3805    -0.0177 C.2     
   5 S5             1.6333     2.0080    -0.0028 S.3     
   6 C6            -1.2314    -0.6980     0.0100 C.ar    
   7 C7            -2.4070    -0.0153     0.0249 C.ar    
   8 C8            -2.4203     1.3739     0.0325 C.ar    
   9 C9            -1.2390     2.0763     0.0303 C.ar    
  10 C10            3.7233     0.0573    -0.0327 C.2     
  11 O11            4.0850    -1.1041    -0.0420 O.2     
  12 N12            4.6373     1.0478    -0.0361 N.am    
  13 C13            6.2798    -0.9660    -3.5034 C.3     
  14 C14            5.8233    -0.7385    -2.0609 C.3     
  15 C15            6.5229     0.4983    -1.4935 C.3     
  16 C16            6.0664     0.7257    -0.0511 C.3     
  17 C17            6.8570     1.8858     0.5572 C.3     
  18 C18            6.4907     2.0331     2.0353 C.3     
  19 C19            7.2813     3.1932     2.6436 C.3     
  20 H20            1.5015    -1.5872    -0.0204 H       
  21 H21           -1.2388    -1.7780     0.0039 H       
  22 H22           -3.3403    -0.5586     0.0306 H       
  23 H23           -3.3615     1.9034     0.0440 H       
  24 H24           -1.2545     3.1562     0.0366 H       
  25 H25            4.3489     1.9739    -0.0288 H       
  26 H26            5.7814    -1.8471    -3.9075 H       
  27 H27            6.0243    -0.0951    -4.1069 H       
  28 H28            7.3590    -1.1178    -3.5233 H       
  29 H29            4.7441    -0.5867    -2.0410 H       
  30 H30            6.0789    -1.6094    -1.4573 H       
  31 H31            7.6021     0.3464    -1.5134 H       
  32 H32            6.2674     1.3692    -2.0971 H       
  33 H33            6.2412    -0.1784     0.5322 H       
  34 H34            7.9246     1.6855     0.4656 H       
  35 H35            6.6137     2.8077     0.0289 H       
  36 H36            5.4232     2.2334     2.1269 H       
  37 H37            6.7340     1.1112     2.5636 H       
  38 H38            8.3489     2.9929     2.5520 H       
  39 H39            7.0381     4.1151     2.1153 H       
  40 H40            7.0204     3.2982     3.6966 H       
@<TRIPOS>BOND
   1    1    2 ar
   2    1    5 1
   3    1    9 ar
   4    2    3 1
   5    2    6 ar
   6    3    4 2
   7    3   20 1
   8    4    5 1
   9    4   10 1
  10    6    7 ar
  11    6   21 1
  12    7    8 ar
  13    7   22 1
  14    8    9 ar
  15    8   23 1
  16    9   24 1
  17   10   11 2
  18   10   12 am
  19   12   16 1
  20   12   25 1
  21   13   14 1
  22   13   26 1
  23   13   27 1
  24   13   28 1
  25   14   15 1
  26   14   29 1
  27   14   30 1
  28   15   16 1
  29   15   31 1
  30   15   32 1
  31   16   17 1
  32   16   33 1
  33   17   18 1
  34   17   34 1
  35   17   35 1
  36   18   19 1
  37   18   36 1
  38   18   37 1
  39   19   38 1
  40   19   39 1
  41   19   40 1

#	End of record

