#	Name: ASD01148159
#	Creating user name:	WinNT
#	Creation time:	15. 06. 2019 19:02

#	Modifying user name:	WinNT
#	Modification time:	15. 06. 2019 19:02

#	Program:	/corina/corina34_cracker 3.40 0067  02.08.2006

@<TRIPOS>MOLECULE
ASD01148159
  59   63    0    0    0
SMALL
NO_CHARGES


@<TRIPOS>ATOM
   1 N1            -0.0111     1.3362     0.0378 N.pl3   
   2 C2             0.0054    -0.0025     0.0179 C.2     
   3 C3             1.1840    -0.7210     0.0061 C.2     
   4 C4             2.4610     0.0070     0.0151 C.2     
   5 C5             2.3980     1.4832     0.0366 C.ar    
   6 N6             3.5081     2.2140     0.0460 N.ar    
   7 C7             3.4583     3.5328     0.0652 C.ar    
   8 C8             2.2337     4.2064     0.0768 C.ar    
   9 C9             1.0663     3.4932     0.0678 C.ar    
  10 C10            1.1372     2.0962     0.0475 C.ar    
  11 C11            1.1624    -2.1924    -0.0148 C.2     
  12 O12            0.1050    -2.7864     0.0768 O.2     
  13 N13            2.3143    -2.8816    -0.1354 N.am    
  14 O14            3.5275    -0.5826     0.0057 O.2     
  15 C15           -1.3058     2.0216     0.0434 C.3     
  16 C16           -1.7616     2.2388     1.4877 C.3     
  17 N17            4.6414     4.2626     0.0744 N.pl3   
  18 C18            5.8903     6.3044     0.7124 C.3     
  19 C19            4.5986     5.7268     0.0957 C.3     
  20 C20            4.6321     6.2975    -1.3380 C.3     
  21 C21            5.4397     7.5738    -1.2375 C.ar    
  22 C22            5.5345     8.6468    -2.1080 C.ar    
  23 C23            6.3486     9.7197    -1.8026 C.ar    
  24 C24            7.0718     9.7237    -0.6243 C.ar    
  25 C25            6.9785     8.6547     0.2451 C.ar    
  26 C26            6.1626     7.5778    -0.0594 C.ar    
  27 O27            1.4637    -6.8415    -0.6940 O.3     
  28 C28            2.7426    -6.3851    -1.1428 C.3     
  29 C29            2.7051    -4.8639    -1.3120 C.3     
  30 N30            2.3082    -4.2442    -0.0393 N.3     
  31 C31            0.9914    -4.7361     0.3913 C.3     
  32 C32            1.0461    -6.2585     0.5434 C.3     
  33 H33           -0.9330    -0.5370     0.0112 H       
  34 H34            2.2091     5.2860     0.0932 H       
  35 H35            0.1113     3.9974     0.0769 H       
  36 H36            3.1477    -2.4101    -0.2905 H       
  37 H37           -1.2087     2.9857    -0.4558 H       
  38 H38           -2.0415     1.4128    -0.4821 H       
  39 H39           -1.0259     2.8476     2.0133 H       
  40 H40           -2.7250     2.7487     1.4919 H       
  41 H41           -1.8588     1.2747     1.9869 H       
  42 H42            5.4952     3.8023     0.0667 H       
  43 H43            5.7383     6.5274     1.7684 H       
  44 H44            6.7153     5.6030     0.5880 H       
  45 H45            3.7200     6.0793     0.6360 H       
  46 H46            5.1186     5.5943    -2.0138 H       
  47 H47            3.6210     6.5158    -1.6818 H       
  48 H48            4.9702     8.6443    -3.0289 H       
  49 H49            6.4206    10.5547    -2.4838 H       
  50 H50            7.7092    10.5618    -0.3841 H       
  51 H51            7.5437     8.6585     1.1654 H       
  52 H52            3.5024    -6.6510    -0.4079 H       
  53 H53            2.9808    -6.8518    -2.0986 H       
  54 H54            3.6936    -4.5051    -1.5988 H       
  55 H55            1.9833    -4.6014    -2.0854 H       
  56 H56            0.7289    -4.2840     1.3478 H       
  57 H57            0.2422    -4.4715    -0.3549 H       
  58 H58            0.0572    -6.6337     0.8070 H       
  59 H59            1.7565    -6.5207     1.3273 H       
@<TRIPOS>BOND
   1    1    2 1
   2    1   10 1
   3    1   15 1
   4    2    3 2
   5    2   33 1
   6    3    4 1
   7    3   11 1
   8    4    5 1
   9    4   14 2
  10    5    6 ar
  11    5   10 ar
  12    6    7 ar
  13    7    8 ar
  14    7   17 1
  15    8    9 ar
  16    8   34 1
  17    9   10 ar
  18    9   35 1
  19   11   12 2
  20   11   13 am
  21   13   30 1
  22   13   36 1
  23   15   16 1
  24   15   37 1
  25   15   38 1
  26   16   39 1
  27   16   40 1
  28   16   41 1
  29   17   19 1
  30   17   42 1
  31   18   19 1
  32   18   26 1
  33   18   43 1
  34   18   44 1
  35   19   20 1
  36   19   45 1
  37   20   21 1
  38   20   46 1
  39   20   47 1
  40   21   22 ar
  41   21   26 ar
  42   22   23 ar
  43   22   48 1
  44   23   24 ar
  45   23   49 1
  46   24   25 ar
  47   24   50 1
  48   25   26 ar
  49   25   51 1
  50   27   28 1
  51   27   32 1
  52   28   29 1
  53   28   52 1
  54   28   53 1
  55   29   30 1
  56   29   54 1
  57   29   55 1
  58   30   31 1
  59   31   32 1
  60   31   56 1
  61   31   57 1
  62   32   58 1
  63   32   59 1

#	End of record

