#	Name: ASD01200284
#	Creating user name:	WinNT
#	Creation time:	15. 06. 2019 19:08

#	Modifying user name:	WinNT
#	Modification time:	15. 06. 2019 19:08

#	Program:	/corina/corina34_cracker 3.40 0067  02.08.2006

@<TRIPOS>MOLECULE
ASD01200284
  29   30    0    0    0
SMALL
NO_CHARGES


@<TRIPOS>ATOM
   1 C1             0.0159     1.3252     0.0216 C.ar    
   2 C2            -1.1436     2.0901     0.0292 C.ar    
   3 C3            -2.3640     1.4383     0.0327 C.ar    
   4 C4            -2.3885     0.0482     0.0286 C.ar    
   5 N5            -1.2618    -0.6459     0.0214 N.ar    
   6 C6            -0.0833    -0.0527     0.0121 C.ar    
   7 Br7            1.7121     2.1612     0.0165 Br      
   8 N8            -3.6118    -0.6209     0.0326 N.am    
   9 C9            -3.6457    -1.9638    -0.0765 C.2     
  10 C10           -4.9569    -2.6968     0.0447 C.3     
  11 O11           -2.6211    -2.5824    -0.2721 O.2     
  12 S12           -4.6742    -4.4745    -0.1455 S.3     
  13 C13           -6.3235    -5.0676     0.0347 C.ar    
  14 N14           -7.3111    -4.2063     0.2458 N.ar    
  15 N15           -6.5651    -6.3707    -0.0475 N.ar    
  16 C16           -7.8105    -6.8120     0.0887 C.ar    
  17 C17           -8.8289    -5.8845     0.3152 C.ar    
  18 N18           -8.5284    -4.6014     0.3820 N.ar    
  19 O19           -8.0870    -8.1362     0.0090 O.3     
  20 C20          -10.2556    -6.3426     0.4755 C.3     
  21 H21           -1.0936     3.1689     0.0326 H       
  22 H22           -3.2853     2.0018     0.0390 H       
  23 H23            0.8152    -0.6520     0.0060 H       
  24 H24           -4.4384    -0.1199     0.1139 H       
  25 H25           -5.3934    -2.5011     1.0241 H       
  26 H26           -5.6390    -2.3522    -0.7326 H       
  27 H27          -10.4566    -6.5436     1.5278 H       
  28 H28          -10.9296    -5.5636     0.1192 H       
  29 H29          -10.4125    -7.2521    -0.1045 H       
@<TRIPOS>BOND
   1    1    2 ar
   2    1    7 1
   3    1    6 ar
   4    2    3 ar
   5    2   21 1
   6    3    4 ar
   7    3   22 1
   8    4    5 ar
   9    4    8 1
  10    5    6 ar
  11    6   23 1
  12    8    9 am
  13    8   24 1
  14    9   10 1
  15    9   11 2
  16   10   12 1
  17   10   25 1
  18   10   26 1
  19   12   13 1
  20   13   14 ar
  21   13   15 ar
  22   14   18 ar
  23   15   16 ar
  24   16   17 ar
  25   16   19 1
  26   17   18 ar
  27   17   20 1
  28   20   27 1
  29   20   28 1
  30   20   29 1

#	End of record

