#	Name: ASD00540002
#	Creating user name:	WinNT
#	Creation time:	15. 06. 2019 18:36

#	Modifying user name:	WinNT
#	Modification time:	15. 06. 2019 18:36

#	Program:	/corina/corina34_cracker 3.40 0067  02.08.2006

@<TRIPOS>MOLECULE
ASD00540002
  31   32    0    0    0
SMALL
NO_CHARGES


@<TRIPOS>ATOM
   1 C1            -0.0432     1.0650     0.3708 C.ar    
   2 C2             1.1565     1.7607     0.3851 C.ar    
   3 C3            -0.0411     3.8360     0.1937 C.ar    
   4 C4            -1.2420     1.7389     0.2634 C.ar    
   5 C5             1.2648     6.0540     0.1177 C.3     
   6 O6            -1.0883     5.9026     0.0108 O.2     
   7 C7            -0.0396     5.2993     0.1010 C.2     
   8 C8            -5.6601     1.3013     0.8779 C.ar    
   9 C9            -5.8245     0.6367    -0.3273 C.ar    
  10 C10           -5.0682     0.9867    -1.4245 C.ar    
  11 C11           -4.1295     2.0171    -1.3242 C.ar    
  12 C12           -3.3179     2.3968    -2.4931 C.2     
  13 C13            1.1662     3.1346     0.2980 C.ar    
  14 C14           -1.2561     3.1256     0.1738 C.ar    
  15 C15           -3.9653     2.6887    -0.1011 C.ar    
  16 C16           -4.7418     2.3246     0.9923 C.ar    
  17 O17           -3.4793     1.7499    -3.6644 O.3     
  18 O18           -2.5027     3.2934    -2.4015 O.2     
  19 S19           -2.7861     3.9899     0.0437 S.3     
  20 H20           -0.0385    -0.0128     0.4397 H       
  21 H21            2.0887     1.2214     0.4655 H       
  22 H22           -2.1709     1.1881     0.2486 H       
  23 H23            1.5285     6.3009     1.1461 H       
  24 H24            2.0482     5.4351    -0.3197 H       
  25 H25            1.1610     6.9717    -0.4611 H       
  26 H26           -6.2580     1.0192     1.7319 H       
  27 H27           -6.5491    -0.1601    -0.4066 H       
  28 H28           -5.2004     0.4650    -2.3609 H       
  29 H29            2.1035     3.6709     0.3144 H       
  30 H30           -4.6203     2.8375     1.9350 H       
  31 H31           -2.9241     2.0344    -4.4032 H       
@<TRIPOS>BOND
   1    1   20 1
   2    1    2 ar
   3    1    4 ar
   4    2   21 1
   5    2   13 ar
   6    3   13 ar
   7    3   14 ar
   8    3    7 1
   9    4   22 1
  10    4   14 ar
  11    5    7 1
  12    5   23 1
  13    5   24 1
  14    5   25 1
  15    6    7 2
  16    8    9 ar
  17    8   26 1
  18    8   16 ar
  19    9   10 ar
  20    9   27 1
  21   10   28 1
  22   10   11 ar
  23   11   12 1
  24   11   15 ar
  25   12   17 1
  26   12   18 2
  27   13   29 1
  28   14   19 1
  29   15   16 ar
  30   15   19 1
  31   16   30 1
  32   17   31 1

#	End of record

