#	Name: ASD01708011
#	Creating user name:	WinNT
#	Creation time:	15. 06. 2019 19:22

#	Modifying user name:	WinNT
#	Modification time:	15. 06. 2019 19:22

#	Program:	/corina/corina34_cracker 3.40 0067  02.08.2006

@<TRIPOS>MOLECULE
ASD01708011
  61   64    0    0    0
SMALL
NO_CHARGES


@<TRIPOS>ATOM
   1 C1            -0.0161     1.3357     0.0094 C.2     
   2 C2             0.0021    -0.0041     0.0020 C.2     
   3 O3             1.2395     1.8162    -0.0000 O.3     
   4 C4             2.1388     0.8117    -0.0140 C.ar    
   5 C5             1.4171    -0.3940    -0.0136 C.ar    
   6 C6             3.5270     0.7733    -0.0275 C.ar    
   7 C7             4.1821    -0.4397    -0.0402 C.ar    
   8 C8             3.4690    -1.6295    -0.0398 C.ar    
   9 C9             2.0915    -1.6137    -0.0273 C.ar    
  10 C10            5.6887    -0.4733    -0.0553 C.3     
  11 N11            6.1905    -0.4914     1.3209 N.am    
  12 C12            7.5176    -0.5223     1.5539 C.2     
  13 O13            8.2980    -0.5351     0.6224 O.2     
  14 C14            8.0247    -0.5405     2.9447 C.ar    
  15 C15            9.3987    -0.5725     3.1854 C.ar    
  16 C16            7.1285    -0.5200     4.0139 C.ar    
  17 C17            7.6001    -0.5366     5.3103 C.ar    
  18 C18            8.9756    -0.5744     5.5524 C.ar    
  19 C19            9.8723    -0.5896     4.4811 C.ar    
  20 Cl20          11.5817    -0.6364     4.7802 Cl      
  21 C21            9.4822    -0.5921     6.9416 C.2     
  22 N22            9.7445     0.5666     7.5781 N.am    
  23 O23            9.6620    -1.6516     7.5094 O.2     
  24 Cl24           6.4848    -0.5099     6.6404 Cl      
  25 C25           10.2463     0.5490     8.9544 C.3     
  26 C26            9.0858     0.4536     9.9110 C.2     
  27 O27            7.9556     0.4052     9.4868 O.2     
  28 O28            9.3079     0.4223    11.2345 O.3     
  29 C29           11.0287     1.8350     9.2284 C.3     
  30 C30           12.2574     1.8709     8.3564 C.ar    
  31 C31           12.1979     2.4484     7.1021 C.ar    
  32 C32           13.3251     2.4813     6.3022 C.ar    
  33 C33           14.5114     1.9371     6.7570 C.ar    
  34 C34           14.5711     1.3603     8.0120 C.ar    
  35 C35           13.4454     1.3312     8.8134 C.ar    
  36 S36           16.0833     0.6661     8.5916 S.o2    
  37 O37           15.6787    -0.3211     9.5302 O.2     
  38 O38           16.7813     0.3080     7.4067 O.2     
  39 C39           16.9189     2.0392     9.4323 C.3     
  40 H40           -0.9099     1.9418     0.0171 H       
  41 H41           -0.8526    -0.6643     0.0072 H       
  42 H42            4.0930     1.6931    -0.0283 H       
  43 H43            3.9959    -2.5722    -0.0499 H       
  44 H44            1.5376    -2.5408    -0.0268 H       
  45 H45            6.0269    -1.3685    -0.5772 H       
  46 H46            6.0667     0.4110    -0.5683 H       
  47 H47            5.5676    -0.4812     2.0645 H       
  48 H48           10.0917    -0.5842     2.3571 H       
  49 H49            6.0653    -0.4908     3.8266 H       
  50 H50            9.6010     1.4121     7.1250 H       
  51 H51           10.9017    -0.3112     9.0912 H       
  52 H52            8.5321     0.3607    11.8084 H       
  53 H53           10.4000     2.6972     9.0060 H       
  54 H54           11.3262     1.8629    10.2766 H       
  55 H55           11.2710     2.8736     6.7468 H       
  56 H56           13.2785     2.9319     5.3218 H       
  57 H57           15.3917     1.9622     6.1318 H       
  58 H58           13.4920     0.8806     9.7938 H       
  59 H59           16.2952     2.3972    10.2514 H       
  60 H60           17.8751     1.6957     9.8270 H       
  61 H61           17.0885     2.8499     8.7236 H       
@<TRIPOS>BOND
   1    1    2 2
   2    1    3 1
   3    1   40 1
   4    2    5 1
   5    2   41 1
   6    3    4 1
   7    4    5 ar
   8    4    6 ar
   9    5    9 ar
  10    6    7 ar
  11    6   42 1
  12    7    8 ar
  13    7   10 1
  14    8    9 ar
  15    8   43 1
  16    9   44 1
  17   10   11 1
  18   10   45 1
  19   10   46 1
  20   11   12 am
  21   11   47 1
  22   12   13 2
  23   12   14 1
  24   14   15 ar
  25   14   16 ar
  26   15   19 ar
  27   15   48 1
  28   16   17 ar
  29   16   49 1
  30   17   18 ar
  31   17   24 1
  32   18   19 ar
  33   18   21 1
  34   19   20 1
  35   21   22 am
  36   21   23 2
  37   22   25 1
  38   22   50 1
  39   25   26 1
  40   25   29 1
  41   25   51 1
  42   26   27 2
  43   26   28 1
  44   28   52 1
  45   29   30 1
  46   29   53 1
  47   29   54 1
  48   30   31 ar
  49   30   35 ar
  50   31   32 ar
  51   31   55 1
  52   32   33 ar
  53   32   56 1
  54   33   34 ar
  55   33   57 1
  56   34   35 ar
  57   34   36 1
  58   35   58 1
  59   36   37 2
  60   36   38 2
  61   36   39 1
  62   39   59 1
  63   39   60 1
  64   39   61 1

#	End of record

