#	Name: ASD01410888
#	Creating user name:	WinNT
#	Creation time:	15. 06. 2019 19:18

#	Modifying user name:	WinNT
#	Modification time:	15. 06. 2019 19:18

#	Program:	/corina/corina34_cracker 3.40 0067  02.08.2006

@<TRIPOS>MOLECULE
ASD01410888
  70   72    0    0    0
SMALL
NO_CHARGES


@<TRIPOS>ATOM
   1 C1            -1.4344     2.8702     0.0501 C.ar    
   2 C2            -1.6848     0.4801     0.0670 C.ar    
   3 C3            -3.0657     0.6197     0.0601 C.ar    
   4 C4            -3.6366     1.9016     0.0599 C.ar    
   5 C5            -2.8085     3.0267     0.0489 C.ar    
   6 O6            -0.6279     3.9648     0.0451 O.3     
   7 C7            -0.0265     4.3075    -1.1217 C.ar    
   8 N8            -3.8828    -0.5098     0.0648 N.am    
   9 C9            -4.1901    -1.1143     1.2295 C.2     
  10 C10           -3.7288    -0.5162     2.5336 C.3     
  11 O11           -4.8379    -2.1396     1.2281 O.2     
  12 C12           -4.7339    -0.8582     3.6353 C.3     
  13 C13           -1.8889    -0.4797     4.2234 C.3     
  14 C14           -2.8939    -0.8217     5.3252 C.3     
  15 C15           -4.2655    -0.2510     4.9593 C.3     
  16 C16           -2.4256    -0.2145     6.6491 C.3     
  17 N17           -0.1831     3.5418    -2.1891 N.ar    
  18 C18            0.7430     5.4621    -1.1858 C.ar    
  19 C19            1.3508     5.8007    -2.3823 C.ar    
  20 C20            1.1662     4.9682    -3.4774 C.ar    
  21 C21            0.3834     3.8385    -3.3430 C.ar    
  22 C22           -2.3572    -1.0869     2.8995 C.3     
  23 C23           -0.8753     1.5980     0.0623 C.ar    
  24 C24           -4.4075    -1.0396    -1.1962 C.3     
  25 C25           -3.4830    -2.1459    -1.7085 C.3     
  26 C26           -4.0310    -2.6992    -3.0255 C.3     
  27 O27           -3.1676    -3.7325    -3.5040 O.3     
  28 C28           -3.5911    -4.3198    -4.7360 C.3     
  29 C29           -2.9753    -3.5501    -5.9062 C.3     
  30 C30           -3.1347    -5.7791    -4.7888 C.3     
  31 C31            0.9136     6.3346     0.0311 C.3     
  32 F32            1.7263     7.4275    -0.2889 F       
  33 F33           -0.3383     6.7928     0.4554 F       
  34 F34            1.5110     5.5935     1.0563 F       
  35 C35           -5.1019     2.0601     0.0521 C.2     
  36 O36           -5.8191     1.0792     0.0458 O.2     
  37 O37           -5.6463     3.2928     0.0520 O.3     
  38 H38           -1.2428    -0.5053     0.0671 H       
  39 H39           -3.2405     4.0165     0.0398 H       
  40 H40           -3.6563     0.5665     2.4312 H       
  41 H41           -5.7110    -0.4516     3.3746 H       
  42 H42           -4.8064    -1.9410     3.7377 H       
  43 H43           -1.8163     0.6030     4.1211 H       
  44 H44           -0.9117    -0.8863     4.4841 H       
  45 H45           -2.9664    -1.9044     5.4275 H       
  46 H46           -4.1930     0.8318     4.8569 H       
  47 H47           -4.9816    -0.4946     5.7442 H       
  48 H48           -2.3531     0.8683     6.5468 H       
  49 H49           -3.1416    -0.4581     7.4340 H       
  50 H50           -1.4484    -0.6210     6.9098 H       
  51 H51            1.9547     6.6925    -2.4621 H       
  52 H52            1.6263     5.2038    -4.4257 H       
  53 H53            0.2369     3.1872    -4.1920 H       
  54 H54           -2.4297    -2.1697     3.0018 H       
  55 H55           -1.6412    -0.8433     2.1146 H       
  56 H56            0.1986     1.4834     0.0677 H       
  57 H57           -5.4052    -1.4468    -1.0322 H       
  58 H58           -4.4587    -0.2385    -1.9336 H       
  59 H59           -2.4853    -1.7387    -1.8726 H       
  60 H60           -3.4318    -2.9470    -0.9712 H       
  61 H61           -5.0287    -3.1064    -2.8615 H       
  62 H62           -4.0822    -1.8981    -3.7629 H       
  63 H63           -4.6781    -4.2763    -4.8044 H       
  64 H64           -1.8883    -3.5936    -5.8378 H       
  65 H65           -3.2984    -3.9981    -6.8459 H       
  66 H66           -3.3005    -2.5105    -5.8686 H       
  67 H67           -3.5734    -6.3274    -3.9551 H       
  68 H68           -3.4578    -6.2271    -5.7285 H       
  69 H69           -2.0477    -5.8226    -4.7203 H       
  70 H70           -6.6118     3.3464     0.0467 H       
@<TRIPOS>BOND
   1    1   23 ar
   2    1    6 1
   3    1    5 ar
   4    2    3 ar
   5    2   23 ar
   6    2   38 1
   7    3    4 ar
   8    3    8 1
   9    4    5 ar
  10    4   35 1
  11    5   39 1
  12    6    7 1
  13    7   18 ar
  14    7   17 ar
  15    8    9 am
  16    8   24 1
  17    9   11 2
  18    9   10 1
  19   10   12 1
  20   10   22 1
  21   10   40 1
  22   12   15 1
  23   12   41 1
  24   12   42 1
  25   13   14 1
  26   13   22 1
  27   13   43 1
  28   13   44 1
  29   14   15 1
  30   14   16 1
  31   14   45 1
  32   15   46 1
  33   15   47 1
  34   16   48 1
  35   16   49 1
  36   16   50 1
  37   17   21 ar
  38   18   19 ar
  39   18   31 1
  40   19   20 ar
  41   19   51 1
  42   20   21 ar
  43   20   52 1
  44   21   53 1
  45   22   54 1
  46   22   55 1
  47   23   56 1
  48   24   25 1
  49   24   57 1
  50   24   58 1
  51   25   26 1
  52   25   59 1
  53   25   60 1
  54   26   27 1
  55   26   61 1
  56   26   62 1
  57   27   28 1
  58   28   29 1
  59   28   30 1
  60   28   63 1
  61   29   64 1
  62   29   65 1
  63   29   66 1
  64   30   67 1
  65   30   68 1
  66   30   69 1
  67   31   32 1
  68   31   33 1
  69   31   34 1
  70   35   36 2
  71   35   37 1
  72   37   70 1

#	End of record

