#	Name: ASD01916028
#	Creating user name:	WinNT
#	Creation time:	15. 06. 2019 20:06

#	Modifying user name:	WinNT
#	Modification time:	15. 06. 2019 20:06

#	Program:	/corina/corina34_cracker 3.40 0067  02.08.2006

@<TRIPOS>MOLECULE
ASD01916028
  46   48    0    0    0
SMALL
NO_CHARGES


@<TRIPOS>ATOM
   1 C1            -0.0137     1.3949     0.0350 C.ar    
   2 C2            -0.0609     0.0882     0.5465 C.ar    
   3 N3            -1.2040    -0.5674     0.5182 N.ar    
   4 C4            -2.2977    -0.0096     0.0164 C.ar    
   5 C5            -3.5607    -0.7860     0.0066 C.2     
   6 N6            -4.7429    -0.1513     0.1330 N.am    
   7 O7            -3.5299    -1.9946    -0.1154 O.2     
   8 C8             1.2062     2.1449     0.0445 C.1     
   9 C9             2.2063     2.7597     0.0523 C.1     
  10 C10            3.4262     3.5096     0.0618 C.ar    
  11 C11            3.4556     4.8094    -0.4514 C.ar    
  12 C12            5.7631     3.6759     0.5952 C.ar    
  13 C13            4.6341     5.5254    -0.4389 C.ar    
  14 N14           -2.2961     1.2217    -0.4764 N.ar    
  15 C15           -1.1938     1.9442    -0.4914 C.ar    
  16 C16            4.5920     2.9475     0.5896 C.ar    
  17 C17            5.7859     4.9600     0.0797 C.ar    
  18 C18           -6.0057    -0.8980     0.0529 C.3     
  19 C19           -4.7932     1.2995     0.3597 C.3     
  20 C20           -5.6423     1.5749     1.6046 C.3     
  21 C21           -7.0139     0.9169     1.4375 C.3     
  22 C22           -6.8387    -0.5934     1.3019 C.3     
  23 C23           -6.7777    -0.4676    -1.1960 C.3     
  24 C24           -5.7113    -2.3978    -0.0177 C.3     
  25 O25           -7.8200     1.1990     2.5832 O.3     
  26 H26            0.8257    -0.3727     0.9564 H       
  27 H27            2.5577     5.2517    -0.8571 H       
  28 H28            6.6658     3.2413     0.9986 H       
  29 H29            4.6584     6.5298    -0.8351 H       
  30 H30           -1.2003     2.9463    -0.8940 H       
  31 H31            4.5758     1.9455     0.9922 H       
  32 H32            6.7058     5.5257     0.0871 H       
  33 H33           -3.7837     1.6803     0.5143 H       
  34 H34           -5.2423     1.7890    -0.5045 H       
  35 H35           -5.1453     1.1621     2.4826 H       
  36 H36           -5.7675     2.6505     1.7290 H       
  37 H37           -7.5000     1.3121     0.5455 H       
  38 H38           -7.8163    -1.0659     1.2063 H       
  39 H39           -6.3314    -0.9816     2.1851 H       
  40 H40           -6.1782    -0.6735    -2.0827 H       
  41 H41           -7.7141    -1.0226    -1.2536 H       
  42 H42           -6.9909     0.6000    -1.1414 H       
  43 H43           -5.0985    -2.6883     0.8357 H       
  44 H44           -6.6488    -2.9534     0.0022 H       
  45 H45           -5.1767    -2.6200    -0.9412 H       
  46 H46           -7.9723     2.1419     2.7345 H       
@<TRIPOS>BOND
   1    1    2 ar
   2    1    8 1
   3    1   15 ar
   4    2    3 ar
   5    2   26 1
   6    3    4 ar
   7    4   14 ar
   8    4    5 1
   9    5    6 am
  10    5    7 2
  11    6   19 1
  12    6   18 1
  13    8    9 3
  14    9   10 1
  15   10   11 ar
  16   10   16 ar
  17   11   13 ar
  18   11   27 1
  19   12   17 ar
  20   12   16 ar
  21   12   28 1
  22   13   17 ar
  23   13   29 1
  24   14   15 ar
  25   15   30 1
  26   16   31 1
  27   17   32 1
  28   18   23 1
  29   18   24 1
  30   18   22 1
  31   19   20 1
  32   19   33 1
  33   19   34 1
  34   20   21 1
  35   20   35 1
  36   20   36 1
  37   21   22 1
  38   21   25 1
  39   21   37 1
  40   22   38 1
  41   22   39 1
  42   23   40 1
  43   23   41 1
  44   23   42 1
  45   24   43 1
  46   24   44 1
  47   24   45 1
  48   25   46 1

#	End of record

