#	Name: ASD01913487
#	Creating user name:	WinNT
#	Creation time:	15. 06. 2019 20:01

#	Modifying user name:	WinNT
#	Modification time:	15. 06. 2019 20:01

#	Program:	/corina/corina34_cracker 3.40 0067  02.08.2006

@<TRIPOS>MOLECULE
ASD01913487
  33   35    0    0    0
SMALL
NO_CHARGES


@<TRIPOS>ATOM
   1 C1            -0.3705    -0.6913    -2.1176 C.ar    
   2 C2            -0.8247    -0.0297    -0.9811 C.ar    
   3 C3            -0.8083     1.3614    -0.9775 C.ar    
   4 N4            -0.3646     2.0010    -2.0470 N.ar    
   5 C5             0.0576     1.3381    -3.1049 C.ar    
   6 N6             0.0577     0.0208    -3.1468 N.ar    
   7 C7            -1.2499    -2.0818     0.0366 C.ar    
   8 C8            -0.0538    -2.7714     0.1768 C.ar    
   9 N9            -0.0228    -4.0884     0.1245 N.ar    
  10 C10           -1.1144    -4.8029    -0.0613 C.ar    
  11 C11           -2.3509    -4.1869    -0.2103 C.ar    
  12 C12           -2.4250    -2.7982    -0.1610 C.ar    
  13 N13           -3.5051    -4.9519    -0.4075 N.am    
  14 C14           -4.6754    -4.5576     0.1322 C.2     
  15 O15           -1.2732    -0.7244     0.0974 O.3     
  16 C16           -5.8689    -5.4226     0.0220 C.ar    
  17 C17           -5.7970    -6.6498    -0.6382 C.ar    
  18 N18           -6.8598    -7.4210    -0.7369 N.ar    
  19 C19           -8.0238    -7.0729    -0.2231 C.ar    
  20 C20           -7.0891    -5.0269     0.5834 C.ar    
  21 O21           -4.7495    -3.4904     0.7097 O.2     
  22 C22           -8.1783    -5.8710     0.4470 C.ar    
  23 Cl23          -9.7187    -5.4307     1.1155 Cl      
  24 H24           -0.3634    -1.7705    -2.1571 H       
  25 H25           -1.1531     1.9111    -0.1141 H       
  26 H26            0.4133     1.8902    -3.9622 H       
  27 H27            0.8634    -2.2223     0.3302 H       
  28 H28           -1.0471    -5.8802    -0.0984 H       
  29 H29           -3.3712    -2.2898    -0.2734 H       
  30 H30           -3.4633    -5.7664    -0.9328 H       
  31 H31           -4.8614    -6.9697    -1.0726 H       
  32 H32           -8.8701    -7.7358    -0.3271 H       
  33 H33           -7.1795    -4.0857     1.1053 H       
@<TRIPOS>BOND
   1    1    2 ar
   2    1    6 ar
   3    1   24 1
   4    2    3 ar
   5    2   15 1
   6    3    4 ar
   7    3   25 1
   8    4    5 ar
   9    5    6 ar
  10    5   26 1
  11    7    8 ar
  12    7   12 ar
  13    7   15 1
  14    8    9 ar
  15    8   27 1
  16    9   10 ar
  17   10   11 ar
  18   10   28 1
  19   11   12 ar
  20   11   13 1
  21   12   29 1
  22   13   14 am
  23   13   30 1
  24   14   16 1
  25   14   21 2
  26   16   17 ar
  27   16   20 ar
  28   17   18 ar
  29   17   31 1
  30   18   19 ar
  31   19   22 ar
  32   19   32 1
  33   20   22 ar
  34   20   33 1
  35   22   23 1

#	End of record

