#	Name: ASD06660127
#	Creating user name:	WinNT
#	Creation time:	15. 06. 2019 21:08

#	Modifying user name:	WinNT
#	Modification time:	15. 06. 2019 21:08

#	Program:	/corina/corina34_cracker 3.40 0067  02.08.2006

@<TRIPOS>MOLECULE
ASD06660127
  77   80    0    0    0
SMALL
NO_CHARGES


@<TRIPOS>ATOM
   1 C1            -0.5506     1.5695     1.0925 C.2     
   2 C2            -0.3732     0.1360     0.6627 C.3     
   3 C3            -1.3774    -0.1926    -0.4438 C.3     
   4 O4             0.3666     2.3492     0.9891 O.2     
   5 O5            -1.7293     1.9815     1.5852 O.3     
   6 C6            -1.2993    -1.6612    -0.7730 C.ar    
   7 C7            -2.0681    -2.5682    -0.0670 C.ar    
   8 C8            -1.9990    -3.9147    -0.3662 C.ar    
   9 C9            -1.1560    -4.3575    -1.3776 C.ar    
  10 C10           -0.3851    -3.4436    -2.0848 C.ar    
  11 C11           -0.4633    -2.0979    -1.7843 C.ar    
  12 N12           -1.0833    -5.7187    -1.6824 N.3     
  13 C13           -0.1358    -5.9628    -2.7774 C.3     
  14 C14           -0.1898    -7.4380    -3.1810 C.3     
  15 C15            0.1651    -8.3065    -1.9708 C.3     
  16 C16           -0.8066    -7.9979    -0.8285 C.3     
  17 C17           -0.7348    -6.5064    -0.4931 C.3     
  18 C18            0.0537    -9.7842    -2.3517 C.3     
  19 N19            0.5076   -10.6126    -1.2319 N.pl3   
  20 C20            0.4981   -11.9981    -1.3438 C.ar    
  21 C21            0.0563   -12.5916    -2.5221 C.ar    
  22 C22            0.0522   -13.9712    -2.6197 C.ar    
  23 C23            0.4917   -14.7140    -1.5316 C.ar    
  24 C24            0.9164   -14.0592    -0.3933 C.ar    
  25 N25            0.9146   -12.7410    -0.3301 N.ar    
  26 C26            2.0144    -0.1894     1.0239 C.2     
  27 C27            3.3973    -0.2930     0.5183 C.ar    
  28 C28            3.9940    -1.5470     0.3620 C.ar    
  29 C29            5.2842    -1.6394    -0.1099 C.ar    
  30 C30            5.9933    -0.4873    -0.4303 C.ar    
  31 C31            5.4034     0.7616    -0.2762 C.ar    
  32 C32            4.1111     0.8621     0.1894 C.ar    
  33 O33            1.8005    -0.2228     2.2203 O.2     
  34 N34            0.9889    -0.0578     0.1594 N.am    
  35 O35            7.2650    -0.5825    -0.8943 O.3     
  36 C36            7.9358     0.6406    -1.2041 C.3     
  37 F37            8.0135     1.4341    -0.0545 F       
  38 F38            9.2265     0.3607    -1.6656 F       
  39 F39            7.2241     1.3246    -2.1956 F       
  40 C40            3.4703     2.2166     0.3502 C.3     
  41 C41            3.2266    -2.7964     0.7099 C.3     
  42 C42            2.4036    -3.2430    -0.5002 C.3     
  43 H43           -0.5429    -0.5224     1.5147 H       
  44 H44           -2.3843     0.0507    -0.1047 H       
  45 H45           -1.1424     0.3921    -1.3332 H       
  46 H46           -1.7951     2.9099     1.8475 H       
  47 H47           -2.7231    -2.2233     0.7194 H       
  48 H48           -2.5994    -4.6227     0.1858 H       
  49 H49            0.2713    -3.7846    -2.8717 H       
  50 H50            0.1322    -1.3863    -2.3369 H       
  51 H51           -0.4019    -5.3423    -3.6331 H       
  52 H52            0.8726    -5.7132    -2.4475 H       
  53 H53           -1.1945    -7.6850    -3.5240 H       
  54 H54            0.5248    -7.6222    -3.9832 H       
  55 H55            1.1840    -8.0875    -1.6515 H       
  56 H56           -1.8211    -8.2536    -1.1345 H       
  57 H57           -0.5328    -8.5820     0.0501 H       
  58 H58            0.2764    -6.2542    -0.1739 H       
  59 H59           -1.4360    -6.2807     0.3103 H       
  60 H60           -0.9845   -10.0226    -2.5826 H       
  61 H61            0.6750    -9.9821    -3.2252 H       
  62 H62            0.8147   -10.1943    -0.4124 H       
  63 H63           -0.2791   -11.9834    -3.3491 H       
  64 H64           -0.2855   -14.4598    -3.5217 H       
  65 H65            0.5006   -15.7930    -1.5757 H       
  66 H66            1.2590   -14.6330     0.4552 H       
  67 H67            5.7460    -2.6081    -0.2310 H       
  68 H68            5.9576     1.6542    -0.5261 H       
  69 H69            1.1527    -0.0915    -0.7961 H       
  70 H70            3.6718     2.5972     1.3515 H       
  71 H71            3.8820     2.9034    -0.3893 H       
  72 H72            2.3936     2.1287     0.2047 H       
  73 H73            3.9248    -3.5866     0.9860 H       
  74 H74            2.5597    -2.5918     1.5474 H       
  75 H75            1.7724    -4.0860    -0.2191 H       
  76 H76            1.7776    -2.4173    -0.8385 H       
  77 H77            3.0745    -3.5438    -1.3049 H       
@<TRIPOS>BOND
   1    1    2 1
   2    1    4 2
   3    1    5 1
   4    2    3 1
   5    2   34 1
   6    2   43 1
   7    3    6 1
   8    3   44 1
   9    3   45 1
  10    5   46 1
  11    6    7 ar
  12    6   11 ar
  13    7    8 ar
  14    7   47 1
  15    8    9 ar
  16    8   48 1
  17    9   10 ar
  18    9   12 1
  19   10   11 ar
  20   10   49 1
  21   11   50 1
  22   12   13 1
  23   12   17 1
  24   13   14 1
  25   13   51 1
  26   13   52 1
  27   14   15 1
  28   14   53 1
  29   14   54 1
  30   15   16 1
  31   15   18 1
  32   15   55 1
  33   16   17 1
  34   16   56 1
  35   16   57 1
  36   17   58 1
  37   17   59 1
  38   18   19 1
  39   18   60 1
  40   18   61 1
  41   19   20 1
  42   19   62 1
  43   20   21 ar
  44   20   25 ar
  45   21   22 ar
  46   21   63 1
  47   22   23 ar
  48   22   64 1
  49   23   24 ar
  50   23   65 1
  51   24   25 ar
  52   24   66 1
  53   26   27 1
  54   26   33 2
  55   26   34 am
  56   27   28 ar
  57   27   32 ar
  58   28   29 ar
  59   28   41 1
  60   29   30 ar
  61   29   67 1
  62   30   31 ar
  63   30   35 1
  64   31   32 ar
  65   31   68 1
  66   32   40 1
  67   34   69 1
  68   35   36 1
  69   36   37 1
  70   36   38 1
  71   36   39 1
  72   40   70 1
  73   40   71 1
  74   40   72 1
  75   41   42 1
  76   41   73 1
  77   41   74 1
  78   42   75 1
  79   42   76 1
  80   42   77 1

#	End of record

