#	Name: ASD01122035
#	Creating user name:	WinNT
#	Creation time:	15. 06. 2019 18:59

#	Modifying user name:	WinNT
#	Modification time:	15. 06. 2019 18:59

#	Program:	/corina/corina34_cracker 3.40 0067  02.08.2006

@<TRIPOS>MOLECULE
ASD01122035
  42   43    0    0    0
SMALL
NO_CHARGES


@<TRIPOS>ATOM
   1 N1            -0.0162     1.3072    -0.0505 N.ar    
   2 C2             0.0021    -0.0126    -0.0528 C.ar    
   3 N3             1.1228    -0.7051    -0.0531 N.ar    
   4 C4             2.2989    -0.0907    -0.0511 C.ar    
   5 C5             2.3366     1.3167    -0.0486 C.ar    
   6 C6             1.1105     2.0119    -0.0484 C.ar    
   7 N7             3.6108    -0.5084    -0.0516 N.am    
   8 C8             4.3950     0.6284    -0.0494 C.2     
   9 N9             3.6268     1.6893    -0.0477 N.2     
  10 N10            1.0807     3.3932    -0.0464 N.pl3   
  11 P11            8.4021     1.6426    -0.1298 P.3     
  12 O12            8.8118     0.8259    -1.4024 O.co2   
  13 O13            8.7691     0.8257     1.1556 O.co2   
  14 O14            9.1689     3.0088    -0.1169 O.co2   
  15 O15            4.1440    -2.3874    -1.0954 O.2     
  16 C16            4.0467    -1.7837    -0.0533 C.2     
  17 C17            4.4127    -2.4567     1.2444 C.3     
  18 O18            5.1659    -3.6400     0.9715 O.3     
  19 C19            3.1374    -2.8277     2.0039 C.3     
  20 O20            2.3331    -1.6602     2.1833 O.3     
  21 C21            3.5080    -3.4067     3.3707 C.3     
  22 O22            4.3123    -4.5742     3.1913 O.3     
  23 C23            2.2327    -3.7778     4.1302 C.3     
  24 O24            2.5724    -4.2092     5.4495 O.3     
  25 C25            5.8675     0.6452    -0.0483 C.2     
  26 C26            6.6062     1.9540    -0.1597 C.3     
  27 N27            6.5273    -0.4641     0.0484 N.2     
  28 H28           -0.9375    -0.5451    -0.0541 H       
  29 H29            1.9101     3.8962    -0.0452 H       
  30 H30            0.2304     3.8600    -0.0462 H       
  31 H31            5.0115    -1.7765     1.8502 H       
  32 H32            4.6939    -4.2918     0.4353 H       
  33 H33            2.5783    -3.5701     1.4343 H       
  34 H34            2.7934    -0.9283     2.6164 H       
  35 H35            4.0671    -2.6644     3.9403 H       
  36 H36            3.8772    -5.2785     2.6915 H       
  37 H37            1.5790    -2.9076     4.1896 H       
  38 H38            1.7187    -4.5832     3.6056 H       
  39 H39            1.8107    -4.4609     5.9894 H       
  40 H40            6.3349     2.5968     0.6777 H       
  41 H41            6.3379     2.4441    -1.0957 H       
  42 H42            7.4972    -0.4530     0.0491 H       
@<TRIPOS>BOND
   1    1    2 ar
   2    1    6 ar
   3    2    3 ar
   4    2   28 1
   5    3    4 ar
   6    4    5 ar
   7    4    7 1
   8    5    6 ar
   9    5    9 1
  10    6   10 1
  11    7    8 1
  12    7   16 am
  13    8    9 2
  14    8   25 1
  15   10   29 1
  16   10   30 1
  17   11   12 ar
  18   11   13 ar
  19   11   14 ar
  20   11   26 1
  21   15   16 2
  22   16   17 1
  23   17   18 1
  24   17   19 1
  25   17   31 1
  26   18   32 1
  27   19   20 1
  28   19   21 1
  29   19   33 1
  30   20   34 1
  31   21   22 1
  32   21   23 1
  33   21   35 1
  34   22   36 1
  35   23   24 1
  36   23   37 1
  37   23   38 1
  38   24   39 1
  39   25   26 1
  40   25   27 2
  41   26   40 1
  42   26   41 1
  43   27   42 1

#	End of record

