#	Name: ASD01912055
#	Creating user name:	WinNT
#	Creation time:	15. 06. 2019 19:58

#	Modifying user name:	WinNT
#	Modification time:	15. 06. 2019 19:58

#	Program:	/corina/corina34_cracker 3.40 0067  02.08.2006

@<TRIPOS>MOLECULE
ASD01912055
  48   50    0    0    0
SMALL
NO_CHARGES


@<TRIPOS>ATOM
   1 C1            -0.0239     1.4642    -0.0364 C.3     
   2 N2             0.0021    -0.0041     0.0020 N.3     
   3 C3             0.6346    -0.5576    -1.2028 C.3     
   4 C4             2.0983    -0.1075    -1.2599 C.3     
   5 N5             2.1407     1.3588    -1.1529 N.am    
   6 C6             1.4128     1.9971    -0.0457 C.3     
   7 C7             2.8288     2.0979    -2.0456 C.2     
   8 C8             2.8589     3.5991    -1.9171 C.3     
   9 O9             3.5483     4.1592    -3.0365 O.3     
  10 C10            3.0964     5.4642    -3.4038 C.3     
  11 C11            3.8880     5.9549    -4.5886 C.ar    
  12 C12            3.4456     5.6929    -5.8718 C.ar    
  13 C13            4.1717     6.1429    -6.9586 C.ar    
  14 C14            5.3399     6.8554    -6.7622 C.ar    
  15 C15            5.7818     7.1182    -5.4790 C.ar    
  16 C16            5.0534     6.6719    -4.3922 C.ar    
  17 C17           -1.2842    -0.5236     0.1763 C.ar    
  18 C18           -1.8852    -1.2495    -0.8431 C.ar    
  19 C19           -3.1564    -1.7618    -0.6683 C.ar    
  20 C20           -3.8312    -1.5518     0.5210 C.ar    
  21 C21           -3.2354    -0.8282     1.5394 C.ar    
  22 C22           -1.9617    -0.3191     1.3729 C.ar    
  23 Cl23          -5.4285    -2.1967     0.7363 Cl      
  24 Cl24          -1.2146     0.5885     2.6504 Cl      
  25 O25            3.4237     1.5548    -2.9523 O.2     
  26 C26            3.5833     3.9861    -0.6263 C.3     
  27 H27           -0.5406     1.7954    -0.9373 H       
  28 H28           -0.5463     1.8419     0.8426 H       
  29 H29            0.5898    -1.6461    -1.1697 H       
  30 H30            0.1088    -0.1982    -2.0874 H       
  31 H31            2.6504    -0.5512    -0.4314 H       
  32 H32            2.5403    -0.4185    -2.2064 H       
  33 H33            1.4016     3.0775    -0.1896 H       
  34 H34            1.8990     1.7557     0.8995 H       
  35 H35            1.8387     3.9819    -1.8901 H       
  36 H36            2.0391     5.4224    -3.6653 H       
  37 H37            3.2366     6.1465    -2.5654 H       
  38 H38            2.5329     5.1362    -6.0252 H       
  39 H39            3.8264     5.9376    -7.9611 H       
  40 H40            5.9075     7.2064    -7.6113 H       
  41 H41            6.6947     7.6745    -5.3256 H       
  42 H42            5.3986     6.8772    -3.3897 H       
  43 H43           -1.3595    -1.4134    -1.7722 H       
  44 H44           -3.6240    -2.3265    -1.4613 H       
  45 H45           -3.7647    -0.6651     2.4666 H       
  46 H46            3.0574     3.5588     0.2276 H       
  47 H47            4.6035     3.6032    -0.6533 H       
  48 H48            3.6050     5.0719    -0.5333 H       
@<TRIPOS>BOND
   1    1    2 1
   2    1    6 1
   3    1   27 1
   4    1   28 1
   5    2    3 1
   6    2   17 1
   7    3    4 1
   8    3   29 1
   9    3   30 1
  10    4    5 1
  11    4   31 1
  12    4   32 1
  13    5    6 1
  14    5    7 am
  15    6   33 1
  16    6   34 1
  17    7    8 1
  18    7   25 2
  19    8    9 1
  20    8   26 1
  21    8   35 1
  22    9   10 1
  23   10   11 1
  24   10   36 1
  25   10   37 1
  26   11   12 ar
  27   11   16 ar
  28   12   13 ar
  29   12   38 1
  30   13   14 ar
  31   13   39 1
  32   14   15 ar
  33   14   40 1
  34   15   16 ar
  35   15   41 1
  36   16   42 1
  37   17   18 ar
  38   17   22 ar
  39   18   19 ar
  40   18   43 1
  41   19   20 ar
  42   19   44 1
  43   20   21 ar
  44   20   23 1
  45   21   22 ar
  46   21   45 1
  47   22   24 1
  48   26   46 1
  49   26   47 1
  50   26   48 1

#	End of record

