#	Name: ASD01200505
#	Creating user name:	WinNT
#	Creation time:	15. 06. 2019 19:09

#	Modifying user name:	WinNT
#	Modification time:	15. 06. 2019 19:09

#	Program:	/corina/corina34_cracker 3.40 0067  02.08.2006

@<TRIPOS>MOLECULE
ASD01200505
  25   26    0    0    0
SMALL
NO_CHARGES


@<TRIPOS>ATOM
   1 N1            -0.0121     1.2893    -0.2781 N.ar    
   2 C2             0.0013    -0.0196    -0.1253 C.ar    
   3 C3             1.1856    -0.7350    -0.2490 C.ar    
   4 C4             2.3624    -0.0487    -0.5376 C.ar    
   5 C5             2.3015     1.3269    -0.6900 C.ar    
   6 C6             1.0849     1.9684    -0.5518 C.ar    
   7 N7             1.1959    -2.1241    -0.0857 N.am    
   8 C8             0.0889    -2.7601     0.3461 C.2     
   9 C9             2.4101    -2.8877    -0.3840 C.3     
  10 O10           -0.9143    -2.1237     0.6111 O.2     
  11 C11            0.0930    -4.2170     0.4964 C.2     
  12 C12           -1.0053    -4.9912     0.7476 C.2     
  13 C13           -0.7168    -6.3319     0.8357 C.2     
  14 C14            0.5736    -6.6477     0.6628 C.2     
  15 S15            1.5101    -5.2508     0.3750 S.3     
  16 Br16           1.2648    -8.4066     0.7288 Br      
  17 H17           -0.9175    -0.5412     0.0987 H       
  18 H18            3.2995    -0.5758    -0.6398 H       
  19 H19            3.1943     1.8917    -0.9142 H       
  20 H20            1.0318     3.0406    -0.6700 H       
  21 H21            2.9654    -3.0618     0.5377 H       
  22 H22            2.1374    -3.8441    -0.8301 H       
  23 H23            3.0308    -2.3253    -1.0815 H       
  24 H24           -2.0007    -4.5892     0.8656 H       
  25 H25           -1.4746    -7.0763     1.0304 H       
@<TRIPOS>BOND
   1    1    2 ar
   2    1    6 ar
   3    2    3 ar
   4    2   17 1
   5    3    4 ar
   6    3    7 1
   7    4    5 ar
   8    4   18 1
   9    5    6 ar
  10    5   19 1
  11    6   20 1
  12    7    8 am
  13    7    9 1
  14    8   10 2
  15    8   11 1
  16    9   21 1
  17    9   22 1
  18    9   23 1
  19   11   12 2
  20   11   15 1
  21   12   13 1
  22   12   24 1
  23   13   14 2
  24   13   25 1
  25   14   15 1
  26   14   16 1

#	End of record

