#	Name: ASD01885824
#	Creating user name:	WinNT
#	Creation time:	15. 06. 2019 19:50

#	Modifying user name:	WinNT
#	Modification time:	15. 06. 2019 19:50

#	Program:	/corina/corina34_cracker 3.40 0067  02.08.2006

@<TRIPOS>MOLECULE
ASD01885824
  52   55    0    0    0
SMALL
NO_CHARGES


@<TRIPOS>ATOM
   1 C1            -0.0160     1.3284     0.0093 C.ar    
   2 C2            -1.2541     2.0207     0.0189 C.ar    
   3 C3            -2.4926     1.2419     0.0209 C.ar    
   4 C4            -2.3739    -0.1452     0.0133 C.ar    
   5 C5            -1.1015    -0.7250     0.0041 C.ar    
   6 N6             0.0021    -0.0041     0.0020 N.ar    
   7 C7             1.1280     3.4317     0.0093 C.ar    
   8 C8            -0.0910     4.1058     0.0248 C.ar    
   9 C9            -1.2693     3.4193     0.0266 C.ar    
  10 C10           -3.8130     1.8994     0.0311 C.2     
  11 C11           -0.9896    -2.2035    -0.0045 C.2     
  12 C12            2.4114     4.2216     0.0087 C.3     
  13 N13            2.8380     4.4637     1.3934 N.3     
  14 C14            1.1794     2.0718     0.0019 C.ar    
  15 N15            0.2252    -2.7873    -0.0143 N.am    
  16 O16           -1.9929    -2.8887    -0.0027 O.2     
  17 C17            4.1981     5.0202     1.4361 C.3     
  18 C18            4.5788     5.3122     2.8899 C.3     
  19 O19            4.4606     4.1120     3.6587 O.3     
  20 C20            3.1486     3.5431     3.6398 C.3     
  21 C21            2.7534     3.2332     2.1935 C.3     
  22 N22           -4.0169     3.1870     0.0387 N.2     
  23 C23           -5.2630     3.5937     0.0472 C.2     
  24 C24           -6.1922     2.6285     0.0472 C.2     
  25 S25           -5.3678     1.0708     0.0274 S.3     
  26 C26            6.0222     5.8164     2.9487 C.3     
  27 F27            6.1381     6.9877     2.1924 F       
  28 F28            6.3693     6.0830     4.2775 F       
  29 F29            6.8789     4.8396     2.4298 F       
  30 C30            3.1400     2.2514     4.4597 C.3     
  31 C31           -7.6845     2.8386     0.0547 C.3     
  32 H32           -3.2564    -0.7678     0.0147 H       
  33 H33           -0.1031     5.1857     0.0359 H       
  34 H34           -2.2086     3.9523     0.0335 H       
  35 H35            3.1838     3.6596    -0.5164 H       
  36 H36            2.2509     5.1754    -0.4940 H       
  37 H37            2.1331     1.5651    -0.0092 H       
  38 H38            1.0262    -2.2402    -0.0157 H       
  39 H39            0.2984    -3.7545    -0.0200 H       
  40 H40            4.8993     4.3005     1.0137 H       
  41 H41            4.2316     5.9440     0.8585 H       
  42 H42            3.9110     6.0722     3.2955 H       
  43 H43            2.4387     4.2511     4.0674 H       
  44 H44            1.7323     2.8526     2.1688 H       
  45 H45            3.4315     2.4849     1.7833 H       
  46 H46           -5.5243     4.6415     0.0542 H       
  47 H47            3.4252     2.4721     5.4884 H       
  48 H48            2.1398     1.8183     4.4450 H       
  49 H49            3.8488     1.5436     4.0301 H       
  50 H50           -8.1875     1.8717     0.0454 H       
  51 H51           -7.9696     3.3879     0.9519 H       
  52 H52           -7.9756     3.4081    -0.8279 H       
@<TRIPOS>BOND
   1    1    6 ar
   2    1   14 ar
   3    1    2 ar
   4    2    3 ar
   5    2    9 ar
   6    3   10 1
   7    3    4 ar
   8    4    5 ar
   9    4   32 1
  10    5   11 1
  11    5    6 ar
  12    7   12 1
  13    7    8 ar
  14    7   14 ar
  15    8    9 ar
  16    8   33 1
  17    9   34 1
  18   10   22 2
  19   10   25 1
  20   11   15 am
  21   11   16 2
  22   12   13 1
  23   12   35 1
  24   12   36 1
  25   13   17 1
  26   13   21 1
  27   14   37 1
  28   15   38 1
  29   15   39 1
  30   17   18 1
  31   17   40 1
  32   17   41 1
  33   18   26 1
  34   18   19 1
  35   18   42 1
  36   19   20 1
  37   20   21 1
  38   20   30 1
  39   20   43 1
  40   21   44 1
  41   21   45 1
  42   22   23 1
  43   23   24 2
  44   23   46 1
  45   24   25 1
  46   24   31 1
  47   26   27 1
  48   26   28 1
  49   26   29 1
  50   30   47 1
  51   30   48 1
  52   30   49 1
  53   31   50 1
  54   31   51 1
  55   31   52 1

#	End of record

