#	Name: ASD07300705
#	Creating user name:	WinNT
#	Creation time:	15. 06. 2019 21:10

#	Modifying user name:	WinNT
#	Modification time:	15. 06. 2019 21:10

#	Program:	/corina/corina34_cracker 3.40 0067  02.08.2006

@<TRIPOS>MOLECULE
ASD07300705
  56   59    0    0    0
SMALL
NO_CHARGES


@<TRIPOS>ATOM
   1 C1            -0.0173     1.4132    -0.0100 C.2     
   2 C2             0.0021    -0.0041     0.0020 C.2     
   3 N3             1.1780     2.0870    -0.0172 N.pl3   
   4 N4             1.1570    -0.6390     0.0060 N.2     
   5 C5             2.3159     0.0275    -0.0010 C.2     
   6 C6             2.3488     1.3750    -0.0126 C.2     
   7 N7            -0.9985     2.3007    -0.0112 N.2     
   8 C8            -0.4876     3.5284    -0.0246 C.2     
   9 C9             0.8869     3.4238    -0.0278 C.2     
  10 N10           -1.1861    -0.7177     0.0100 N.pl3   
  11 C11           -1.1896    -2.1845    -0.1073 C.3     
  12 C12           -2.0522    -2.7579     1.0227 C.3     
  13 O13           -3.3301    -2.1170     1.0109 O.3     
  14 C14           -3.2811    -0.7092     1.2547 C.3     
  15 C15           -2.4810    -0.0313     0.1422 C.3     
  16 C16           -1.2755     4.8130    -0.0302 C.3     
  17 C17            2.9642     4.5218     0.8101 C.ar    
  18 C18            1.8573     4.5387    -0.0383 C.ar    
  19 C19            1.6794     5.6282    -0.9010 C.ar    
  20 C20            2.6137     6.6457    -0.8743 C.ar    
  21 C21            3.6905     6.5565    -0.0003 C.ar    
  22 N22            3.8312     5.5140     0.8022 N.ar    
  23 O23            4.6113     7.5529     0.0302 O.3     
  24 C24            5.6960     7.4059     0.9488 C.3     
  25 C25            6.6237     8.6178     0.8405 C.3     
  26 C26            7.1718     8.7148    -0.5846 C.3     
  27 C27            5.8418     9.8900     1.1739 C.3     
  28 O28            7.7084     8.4708     1.7591 O.3     
  29 C29            8.6388     9.5552     1.7381 C.3     
  30 H30            3.2441    -0.5247     0.0026 H       
  31 H31            3.2966     1.8927    -0.0180 H       
  32 H32           -1.6072    -2.4747    -1.0714 H       
  33 H33           -0.1709    -2.5622    -0.0194 H       
  34 H34           -2.1812    -3.8300     0.8742 H       
  35 H35           -1.5637    -2.5784     1.9805 H       
  36 H36           -4.2941    -0.3074     1.2730 H       
  37 H37           -2.7971    -0.5223     2.2133 H       
  38 H38           -2.3172     1.0161     0.3953 H       
  39 H39           -3.0310    -0.1010    -0.7963 H       
  40 H40           -1.4586     5.1314     0.9960 H       
  41 H41           -0.7104     5.5836    -0.5545 H       
  42 H42           -2.2276     4.6530    -0.5363 H       
  43 H43            3.1098     3.6896     1.4828 H       
  44 H44            0.8331     5.6715    -1.5705 H       
  45 H45            2.5085     7.5007    -1.5257 H       
  46 H46            5.3055     7.3368     1.9641 H       
  47 H47            6.2530     6.4996     0.7113 H       
  48 H48            6.3444     8.8268    -1.2853 H       
  49 H49            7.8327     9.5781    -0.6617 H       
  50 H50            7.7288     7.8084    -0.8221 H       
  51 H51            5.4513     9.8209     2.1892 H       
  52 H52            6.5027    10.7533     1.0968 H       
  53 H53            5.0144    10.0020     0.4733 H       
  54 H54            9.4314     9.3681     2.4626 H       
  55 H55            9.0711     9.6438     0.7414 H       
  56 H56            8.1236    10.4810     1.9942 H       
@<TRIPOS>BOND
   1    1    2 1
   2    1    3 1
   3    1    7 2
   4    2    4 2
   5    2   10 1
   6    3    6 1
   7    3    9 1
   8    4    5 1
   9    5    6 2
  10    5   30 1
  11    6   31 1
  12    7    8 1
  13    8    9 2
  14    8   16 1
  15    9   18 1
  16   10   11 1
  17   10   15 1
  18   11   12 1
  19   11   32 1
  20   11   33 1
  21   12   13 1
  22   12   34 1
  23   12   35 1
  24   13   14 1
  25   14   15 1
  26   14   36 1
  27   14   37 1
  28   15   38 1
  29   15   39 1
  30   16   40 1
  31   16   41 1
  32   16   42 1
  33   17   18 ar
  34   17   22 ar
  35   17   43 1
  36   18   19 ar
  37   19   20 ar
  38   19   44 1
  39   20   21 ar
  40   20   45 1
  41   21   22 ar
  42   21   23 1
  43   23   24 1
  44   24   25 1
  45   24   46 1
  46   24   47 1
  47   25   26 1
  48   25   27 1
  49   25   28 1
  50   26   48 1
  51   26   49 1
  52   26   50 1
  53   27   51 1
  54   27   52 1
  55   27   53 1
  56   28   29 1
  57   29   54 1
  58   29   55 1
  59   29   56 1

#	End of record

