#	Name: ASD05490086
#	Creating user name:	WinNT
#	Creation time:	15. 06. 2019 21:01

#	Modifying user name:	WinNT
#	Modification time:	15. 06. 2019 21:01

#	Program:	/corina/corina34_cracker 3.40 0067  02.08.2006

@<TRIPOS>MOLECULE
ASD05490086
  64   68    0    0    0
SMALL
NO_CHARGES


@<TRIPOS>ATOM
   1 N1            -0.0178     1.4608     0.0101 N.am    
   2 O2             4.5863     2.8161    -0.0262 O.3     
   3 N3             2.8511     4.3368    -0.0011 N.ar    
   4 C4             1.5540     4.6376     0.0125 C.ar    
   5 C5             3.2565     3.0770    -0.0125 C.ar    
   6 N6             2.4054     2.0644    -0.0098 N.ar    
   7 C7             1.0946     2.2826     0.0039 C.ar    
   8 C8             0.6266     3.5971     0.0154 C.ar    
   9 N9             1.1342     5.9598     0.0241 N.pl3   
  10 C10           -1.1223     2.2312     0.0189 C.2     
  11 N11           -0.7663     3.5310     0.0284 N.am    
  12 C12            5.4681     3.9405    -0.0273 C.3     
  13 C13            6.9178     3.4518    -0.0435 C.3     
  14 O14            7.1762     2.7676    -1.2712 O.3     
  15 C15            8.5098     2.2679    -1.3886 C.3     
  16 O16           -2.2665     1.8171     0.0260 O.2     
  17 C17            0.0021    -0.0041     0.0020 C.3     
  18 C18            0.0225    -0.5140     1.4200 C.ar    
  19 C19           -1.1614    -0.7663     2.0879 C.ar    
  20 N20           -1.1568    -1.2123     3.3278 N.ar    
  21 C21           -0.0248    -1.4361     3.9821 C.ar    
  22 C22            1.2049    -1.2028     3.3700 C.ar    
  23 C23            1.2299    -0.7401     2.0658 C.ar    
  24 C24           -0.0686    -1.9384     5.3773 C.ar    
  25 C25           -1.2940    -2.1741     5.9976 C.ar    
  26 C26            1.1156    -2.1818     6.0704 C.ar    
  27 C27            1.0690    -2.6495     7.3680 C.ar    
  28 C28           -0.1502    -2.8772     7.9805 C.ar    
  29 C29           -1.3288    -2.6419     7.2956 C.ar    
  30 C30           -0.1946    -3.3884     9.3974 C.3     
  31 N31           -0.2163    -2.2517    10.3277 N.3     
  32 C32           -0.4983    -2.7002    11.7036 C.3     
  33 C33            0.6685    -2.2167    12.5903 C.3     
  34 C34            1.2605    -1.0364    11.7759 C.3     
  35 C35            1.0781    -1.5372    10.3214 C.3     
  36 H36            1.7881     6.6762     0.0223 H       
  37 H37            0.1868     6.1678     0.0340 H       
  38 H38           -1.3727     4.2880     0.0359 H       
  39 H39            5.2799     4.5490    -0.9119 H       
  40 H40            5.2961     4.5380     0.8679 H       
  41 H41            7.5900     4.3052     0.0452 H       
  42 H42            7.0814     2.7720     0.7927 H       
  43 H43            8.7064     1.5636    -0.5803 H       
  44 H44            8.6252     1.7622    -2.3473 H       
  45 H45            9.2150     3.0968    -1.3278 H       
  46 H46           -0.8878    -0.3767    -0.5053 H       
  47 H47            0.8920    -0.3525    -0.5222 H       
  48 H48           -2.1027    -0.5953     1.5868 H       
  49 H49            2.1258    -1.3852     3.9040 H       
  50 H50            2.1678    -0.5506     1.5651 H       
  51 H51           -2.2148    -1.9907     5.4638 H       
  52 H52            2.0681    -2.0051     5.5929 H       
  53 H53            1.9861    -2.8385     7.9061 H       
  54 H54           -2.2779    -2.8209     7.7788 H       
  55 H55           -1.0923    -3.9905     9.5385 H       
  56 H56            0.6869    -3.9996     9.5910 H       
  57 H57           -1.4343    -2.2632    12.0516 H       
  58 H58           -0.5607    -3.7880    11.7336 H       
  59 H59            0.3009    -1.8720    13.5568 H       
  60 H60            1.4087    -3.0066    12.7177 H       
  61 H61            0.6945    -0.1209    11.9475 H       
  62 H62            2.3152    -0.8911    12.0094 H       
  63 H63            1.8856    -2.2172    10.0501 H       
  64 H64            1.0428    -0.6942     9.6314 H       
@<TRIPOS>BOND
   1    1   17 1
   2    1    7 1
   3    1   10 am
   4    2   12 1
   5    2    5 1
   6    3    4 ar
   7    3    5 ar
   8    4    9 1
   9    4    8 ar
  10    5    6 ar
  11    6    7 ar
  12    7    8 ar
  13    8   11 1
  14    9   36 1
  15    9   37 1
  16   10   11 am
  17   10   16 2
  18   11   38 1
  19   12   13 1
  20   12   39 1
  21   12   40 1
  22   13   14 1
  23   13   41 1
  24   13   42 1
  25   14   15 1
  26   15   43 1
  27   15   44 1
  28   15   45 1
  29   17   18 1
  30   17   46 1
  31   17   47 1
  32   18   19 ar
  33   18   23 ar
  34   19   20 ar
  35   19   48 1
  36   20   21 ar
  37   21   22 ar
  38   21   24 1
  39   22   23 ar
  40   22   49 1
  41   23   50 1
  42   24   25 ar
  43   24   26 ar
  44   25   29 ar
  45   25   51 1
  46   26   27 ar
  47   26   52 1
  48   27   28 ar
  49   27   53 1
  50   28   29 ar
  51   28   30 1
  52   29   54 1
  53   30   31 1
  54   30   55 1
  55   30   56 1
  56   31   32 1
  57   31   35 1
  58   32   33 1
  59   32   57 1
  60   32   58 1
  61   33   34 1
  62   33   59 1
  63   33   60 1
  64   34   35 1
  65   34   61 1
  66   34   62 1
  67   35   63 1
  68   35   64 1

#	End of record

