#	Name: ASD01940538
#	Creating user name:	WinNT
#	Creation time:	15. 06. 2019 20:12

#	Modifying user name:	WinNT
#	Modification time:	15. 06. 2019 20:12

#	Program:	/corina/corina34_cracker 3.40 0067  02.08.2006

@<TRIPOS>MOLECULE
ASD01940538
  41   43    0    0    0
SMALL
NO_CHARGES


@<TRIPOS>ATOM
   1 C1            -0.0162     1.3436     0.0094 C.2     
   2 N2             0.0021    -0.0041     0.0020 N.am    
   3 O3             1.0277     1.9654     0.0028 O.2     
   4 O4            -1.1912     2.0008     0.0186 O.3     
   5 C5            -1.2565    -0.7538     0.0100 C.3     
   6 N6             0.8077    -2.7018     0.4399 N.pl3   
   7 C7             1.4997    -1.6439     1.1914 C.3     
   8 C8             1.2806    -0.7192    -0.0140 C.3     
   9 C9             1.2531    -2.0400    -0.7956 C.3     
  10 C10           -0.4655    -4.6454    -0.2703 C.2     
  11 C11            0.0670    -3.8296     0.7566 C.2     
  12 N12           -1.1916    -5.7524     0.0774 N.pl3   
  13 N13           -0.1474    -4.1519     2.0171 N.2     
  14 C14           -0.8578    -5.2343     2.3441 C.2     
  15 C15           -1.3844    -6.0409     1.3961 C.2     
  16 N16           -1.5743    -6.3405    -1.1326 N.2     
  17 N17           -1.0906    -5.6054    -2.0772 N.2     
  18 N18           -0.4427    -4.6061    -1.5910 N.2     
  19 Br19          -2.3843    -7.5658     1.8969 Br      
  20 C20           -1.1349     3.4517     0.0262 C.3     
  21 C21           -0.4003     3.9401    -1.2239 C.3     
  22 C22           -2.5565     4.0172     0.0360 C.3     
  23 C23           -0.3885     3.9266     1.2745 C.3     
  24 H24           -1.5785    -0.9342    -1.0156 H       
  25 H25           -1.1084    -1.7071     0.5173 H       
  26 H26           -2.0192    -0.1778     0.5342 H       
  27 H27            0.9640    -1.3255     2.0858 H       
  28 H28            2.5496    -1.8642     1.3843 H       
  29 H29            2.1305    -0.0771    -0.2451 H       
  30 H30            2.2374    -2.3659    -1.1320 H       
  31 H31            0.5079    -2.0584    -1.5909 H       
  32 H32           -1.0143    -5.4699     3.3864 H       
  33 H33           -0.9321     3.6018    -2.1132 H       
  34 H34           -0.3581     5.0293    -1.2182 H       
  35 H35            0.6125     3.5373    -1.2309 H       
  36 H36           -3.0798     3.6692     0.9266 H       
  37 H37           -2.5142     5.1064     0.0417 H       
  38 H38           -3.0883     3.6789    -0.8533 H       
  39 H39            0.6243     3.5237     1.2675 H       
  40 H40           -0.3462     5.0157     1.2802 H       
  41 H41           -0.9118     3.5786     2.1651 H       
@<TRIPOS>BOND
   1    1    2 am
   2    1    3 2
   3    1    4 1
   4    2    5 1
   5    2    8 1
   6    4   20 1
   7    5   24 1
   8    5   25 1
   9    5   26 1
  10    6    7 1
  11    6    9 1
  12    6   11 1
  13    7    8 1
  14    7   27 1
  15    7   28 1
  16    8    9 1
  17    8   29 1
  18    9   30 1
  19    9   31 1
  20   10   11 1
  21   10   12 1
  22   10   18 2
  23   11   13 2
  24   12   15 1
  25   12   16 1
  26   13   14 1
  27   14   15 2
  28   14   32 1
  29   15   19 1
  30   16   17 2
  31   17   18 1
  32   20   21 1
  33   20   23 1
  34   20   22 1
  35   21   33 1
  36   21   34 1
  37   21   35 1
  38   22   36 1
  39   22   37 1
  40   22   38 1
  41   23   39 1
  42   23   40 1
  43   23   41 1

#	End of record

