#	Name: ASD01410435
#	Creating user name:	WinNT
#	Creation time:	15. 06. 2019 19:17

#	Modifying user name:	WinNT
#	Modification time:	15. 06. 2019 19:17

#	Program:	/corina/corina34_cracker 3.40 0067  02.08.2006

@<TRIPOS>MOLECULE
ASD01410435
  58   63    0    0    0
SMALL
NO_CHARGES


@<TRIPOS>ATOM
   1 C1            -2.5975     4.6063    -2.8213 C.ar    
   2 C2            -3.2416     4.1445    -3.9683 C.ar    
   3 C3            -4.3089     3.2764    -3.8580 C.ar    
   4 C4            -4.7427     2.8627    -2.6122 C.ar    
   5 C5            -4.1073     3.3181    -1.4650 C.ar    
   6 C6            -3.0307     4.1845    -1.5667 C.ar    
   7 C7            -2.3392     4.6797    -0.3227 C.3     
   8 O8            -4.5372     2.9093    -0.2425 O.3     
   9 C9            -5.5670     2.0234    -0.1916 C.ar    
  10 C10           -5.3252     0.6680    -0.3985 C.ar    
  11 C11           -6.3569    -0.2451    -0.3507 C.ar    
  12 C12           -7.6500     0.1892    -0.0933 C.ar    
  13 C13           -7.8975     1.5583     0.1168 C.ar    
  14 C14           -6.8485     2.4726     0.0713 C.ar    
  15 F15           -2.4353     3.7104     0.6815 F       
  16 F16           -0.9914     4.9264    -0.6051 F       
  17 F17           -2.9488     5.8620     0.1106 F       
  18 N18           -8.7170    -0.6871    -0.0358 N.pl3   
  19 C19           -9.9578    -0.2354     0.2146 C.2     
  20 N20          -10.2378     1.0225     0.4155 N.2     
  21 C21           -9.2857     1.9740     0.3863 C.2     
  22 O22           -9.5638     3.1455     0.5765 O.2     
  23 C23           -8.4940    -2.1191    -0.2499 C.3     
  24 C24           -8.3199    -2.8049     1.0807 C.ar    
  25 C25           -9.4308    -3.1882     1.8124 C.ar    
  26 C26           -9.2708    -3.8181     3.0347 C.ar    
  27 C27           -8.0000    -4.0651     3.5251 C.ar    
  28 C28           -6.8892    -3.6826     2.7929 C.ar    
  29 C29           -7.0491    -3.0566     1.5686 C.ar    
  30 F30           -5.9650    -2.6834     0.8540 F       
  31 F31           -7.8440    -4.6790     4.7183 F       
  32 F32          -10.6710    -2.9471     1.3339 F       
  33 C33           -1.4502     5.5393    -2.9370 C.ar    
  34 C34           -1.4296     6.7139    -2.1769 C.ar    
  35 C35           -0.3811     7.5803    -2.2737 C.ar    
  36 C36            0.6810     7.2961    -3.1368 C.ar    
  37 C37            0.6702     6.1173    -3.9060 C.ar    
  38 C38           -0.4001     5.2391    -3.7952 C.ar    
  39 C39            1.9269     7.9876    -3.4745 C.2     
  40 C40            2.5649     7.2286    -4.3801 C.2     
  41 N41            1.8294     6.1071    -4.6503 N.pl3   
  42 H42           -2.9056     4.4663    -4.9430 H       
  43 H43           -4.8069     2.9195    -4.7475 H       
  44 H44           -5.5785     2.1836    -2.5312 H       
  45 H45           -4.3197     0.3287    -0.5989 H       
  46 H46           -6.1599    -1.2944    -0.5132 H       
  47 H47           -7.0350     3.5242     0.2321 H       
  48 H48          -10.7654    -0.9516     0.2512 H       
  49 H49           -9.3515    -2.5466    -0.7696 H       
  50 H50           -7.5966    -2.2611    -0.8520 H       
  51 H51          -10.1375    -4.1164     3.6059 H       
  52 H52           -5.8978    -3.8750     3.1756 H       
  53 H53           -2.2493     6.9357    -1.5097 H       
  54 H54           -0.3716     8.4853    -1.6844 H       
  55 H55           -0.4198     4.3312    -4.3798 H       
  56 H56            2.2681     8.9297    -3.0714 H       
  57 H57            3.5174     7.4683    -4.8292 H       
  58 H58            2.0860     5.4089    -5.2728 H       
@<TRIPOS>BOND
   1    1    2 ar
   2    1   33 1
   3    1    6 ar
   4    2    3 ar
   5    2   42 1
   6    3    4 ar
   7    3   43 1
   8    4    5 ar
   9    4   44 1
  10    5    6 ar
  11    5    8 1
  12    6    7 1
  13    7   15 1
  14    7   16 1
  15    7   17 1
  16    8    9 1
  17    9   10 ar
  18    9   14 ar
  19   10   11 ar
  20   10   45 1
  21   11   12 ar
  22   11   46 1
  23   12   13 ar
  24   12   18 1
  25   13   14 ar
  26   13   21 1
  27   14   47 1
  28   18   19 1
  29   18   23 1
  30   19   20 2
  31   19   48 1
  32   20   21 1
  33   21   22 2
  34   23   24 1
  35   23   49 1
  36   23   50 1
  37   24   25 ar
  38   24   29 ar
  39   25   26 ar
  40   25   32 1
  41   26   27 ar
  42   26   51 1
  43   27   28 ar
  44   27   31 1
  45   28   29 ar
  46   28   52 1
  47   29   30 1
  48   33   34 ar
  49   33   38 ar
  50   34   35 ar
  51   34   53 1
  52   35   36 ar
  53   35   54 1
  54   36   37 ar
  55   36   39 1
  56   37   38 ar
  57   37   41 1
  58   38   55 1
  59   39   40 2
  60   39   56 1
  61   40   41 1
  62   40   57 1
  63   41   58 1

#	End of record

