#	Name: ASD01890315
#	Creating user name:	WinNT
#	Creation time:	15. 06. 2019 19:50

#	Modifying user name:	WinNT
#	Modification time:	15. 06. 2019 19:50

#	Program:	/corina/corina34_cracker 3.40 0067  02.08.2006

@<TRIPOS>MOLECULE
ASD01890315
  33   34    0    0    0
SMALL
NO_CHARGES


@<TRIPOS>ATOM
   1 C1            -0.0824     1.3089    -0.7985 C.2     
   2 C2            -0.0190    -0.0493    -0.2602 C.2     
   3 C3             1.1740    -0.6622    -0.1145 C.2     
   4 C4             2.4493     0.1057    -0.3495 C.3     
   5 O5             0.9435     1.9133    -1.0464 O.2     
   6 O6            -1.2789     1.8894    -1.0254 O.3     
   7 C7             1.2301    -2.0807     0.2738 C.ar    
   8 C8             0.7263    -3.0644    -0.5832 C.ar    
   9 C9             0.7829    -4.3913    -0.2124 C.ar    
  10 C10            1.3360    -4.7506     1.0044 C.ar    
  11 C11            1.8363    -3.7829     1.8582 C.ar    
  12 C12            1.7926    -2.4523     1.4991 C.ar    
  13 O13            2.7267     0.1512    -1.7505 O.3     
  14 C14            3.8504     0.8117    -2.1360 C.ar    
  15 C15            4.1803     0.8947    -3.4808 C.ar    
  16 C16            5.3225     1.5669    -3.8706 C.ar    
  17 C17            6.1372     2.1571    -2.9206 C.ar    
  18 C18            5.8098     2.0753    -1.5788 C.ar    
  19 C19            4.6656     1.4085    -1.1855 C.ar    
  20 Cl20           7.5724     3.0007    -3.4129 Cl      
  21 H21           -0.9272    -0.5617     0.0208 H       
  22 H22            2.3378     1.1207     0.0320 H       
  23 H23            3.2716    -0.3886     0.1679 H       
  24 H24           -1.2196     2.7866    -1.3813 H       
  25 H25            0.2938    -2.7856    -1.5327 H       
  26 H26            0.3943    -5.1522    -0.8731 H       
  27 H27            1.3772    -5.7915     1.2893 H       
  28 H28            2.2657    -4.0710     2.8063 H       
  29 H29            2.1874    -1.6987     2.1644 H       
  30 H30            3.5449     0.4339    -4.2226 H       
  31 H31            5.5799     1.6315    -4.9175 H       
  32 H32            6.4469     2.5366    -0.8387 H       
  33 H33            4.4082     1.3484    -0.1383 H       
@<TRIPOS>BOND
   1    1    2 1
   2    1    5 2
   3    1    6 1
   4    2    3 2
   5    2   21 1
   6    3    4 1
   7    3    7 1
   8    4   13 1
   9    4   22 1
  10    4   23 1
  11    6   24 1
  12    7    8 ar
  13    7   12 ar
  14    8    9 ar
  15    8   25 1
  16    9   10 ar
  17    9   26 1
  18   10   11 ar
  19   10   27 1
  20   11   12 ar
  21   11   28 1
  22   12   29 1
  23   13   14 1
  24   14   15 ar
  25   14   19 ar
  26   15   16 ar
  27   15   30 1
  28   16   17 ar
  29   16   31 1
  30   17   18 ar
  31   17   20 1
  32   18   19 ar
  33   18   32 1
  34   19   33 1

#	End of record

