#	Name: ASD03092005
#	Creating user name:	WinNT
#	Creation time:	15. 06. 2019 20:31

#	Modifying user name:	WinNT
#	Modification time:	15. 06. 2019 20:31

#	Program:	/corina/corina34_cracker 3.40 0067  02.08.2006

@<TRIPOS>MOLECULE
ASD03092005
  49   51    0    0    0
SMALL
NO_CHARGES


@<TRIPOS>ATOM
   1 C1             0.0701     1.0638    -0.8345 C.ar    
   2 N2             0.0031    -0.2103    -0.5135 N.ar    
   3 C3             1.0533    -0.8724    -0.0402 C.ar    
   4 C4             2.2753    -0.2325     0.1347 C.ar    
   5 C5             2.3824     1.1229    -0.1967 C.ar    
   6 C6             1.2480     1.7746    -0.6915 C.ar    
   7 C7             0.9208    -2.3062     0.3050 C.2     
   8 C8             3.6612     1.8472    -0.0278 C.2     
   9 C9             4.9061     1.2878     0.0262 C.2     
  10 C10            5.8339     2.3234     0.1934 C.2     
  11 N11            5.1817     3.4622     0.2390 N.2     
  12 N12            3.8139     3.1963     0.0967 N.pl3   
  13 C13            2.7378     4.1904     0.0922 C.3     
  14 C14            2.5778     4.7624    -1.3178 C.3     
  15 C15            1.3887     5.7248    -1.3458 C.3     
  16 C16            1.1514     6.2006    -2.7805 C.3     
  17 N17            7.2220     2.1704     0.2947 N.pl3   
  18 C18            8.0476     3.2977     0.3483 C.ar    
  19 C19            9.2882     3.2220     0.9674 C.ar    
  20 C20           10.1031     4.3384     1.0186 C.ar    
  21 C21            9.6810     5.5317     0.4520 C.ar    
  22 C22            8.4444     5.6074    -0.1653 C.ar    
  23 C23            7.6301     4.4932    -0.2230 C.ar    
  24 F24           11.3102     4.2665     1.6210 F       
  25 F25           10.4776     6.6217     0.5029 F       
  26 O26            3.7673     5.4641    -1.6850 O.3     
  27 O27           -0.2598    -2.9326     0.1387 O.3     
  28 C28           -0.3165    -4.3383     0.4978 C.3     
  29 O29            1.8766    -2.9173     0.7380 O.2     
  30 H30           -0.8074     1.5615    -1.2201 H       
  31 H31            3.1275    -0.7725     0.5203 H       
  32 H32            1.2913     2.8201    -0.9587 H       
  33 H33            5.1341     0.2346    -0.0466 H       
  34 H34            1.8053     3.7178     0.4006 H       
  35 H35            2.9837     4.9952     0.7850 H       
  36 H36            2.4036     3.9491    -2.0222 H       
  37 H37            0.4983     5.2129    -0.9808 H       
  38 H38            1.6011     6.5834    -0.7087 H       
  39 H39            0.3043     6.8862    -2.8004 H       
  40 H40            2.0418     6.7125    -3.1455 H       
  41 H41            0.9390     5.3421    -3.4175 H       
  42 H42            7.6109     1.2824     0.3278 H       
  43 H43            9.6163     2.2925     1.4088 H       
  44 H44            8.1174     6.5378    -0.6056 H       
  45 H45            6.6656     4.5535    -0.7052 H       
  46 H46            3.9844     6.2030    -1.1003 H       
  47 H47           -1.3213    -4.7196     0.3157 H       
  48 H48            0.3989    -4.8967    -0.1060 H       
  49 H49           -0.0697    -4.4540     1.5531 H       
@<TRIPOS>BOND
   1    1    2 ar
   2    1    6 ar
   3    1   30 1
   4    2    3 ar
   5    3    4 ar
   6    3    7 1
   7    4    5 ar
   8    4   31 1
   9    5    6 ar
  10    5    8 1
  11    6   32 1
  12    7   27 1
  13    7   29 2
  14    8    9 2
  15    8   12 1
  16    9   10 1
  17    9   33 1
  18   10   11 2
  19   10   17 1
  20   11   12 1
  21   12   13 1
  22   13   14 1
  23   13   34 1
  24   13   35 1
  25   14   15 1
  26   14   26 1
  27   14   36 1
  28   15   16 1
  29   15   37 1
  30   15   38 1
  31   16   39 1
  32   16   40 1
  33   16   41 1
  34   17   18 1
  35   17   42 1
  36   18   19 ar
  37   18   23 ar
  38   19   20 ar
  39   19   43 1
  40   20   21 ar
  41   20   24 1
  42   21   22 ar
  43   21   25 1
  44   22   23 ar
  45   22   44 1
  46   23   45 1
  47   26   46 1
  48   27   28 1
  49   28   47 1
  50   28   48 1
  51   28   49 1

#	End of record

