#	Name: ASD08170280
#	Creating user name:	WinNT
#	Creation time:	15. 06. 2019 21:17

#	Modifying user name:	WinNT
#	Modification time:	15. 06. 2019 21:17

#	Program:	/corina/corina34_cracker 3.40 0067  02.08.2006

@<TRIPOS>MOLECULE
ASD08170280
 100  103    0    0    0
SMALL
NO_CHARGES


@<TRIPOS>ATOM
   1 C1            -3.0406    -1.4677     1.1863 C.2     
   2 N2            -2.7981    -2.6093     0.5122 N.am    
   3 C3            -1.4900    -2.9784     0.2176 C.2     
   4 S4            -1.0176    -4.3916    -0.6276 S.3     
   5 C5             0.6697    -3.9077    -0.4533 C.2     
   6 C6             1.8687    -4.6640    -0.9646 C.3     
   7 C7             5.4340    -8.4868     0.5178 C.3     
   8 C8             5.7828    -9.3900     1.6727 C.2     
   9 S9             6.8831    -9.0075     2.9973 S.3     
  10 C10            6.5816   -10.5544     3.6688 C.2     
  11 N11           -0.4244    -2.3061     0.5329 N.2     
  12 N12            0.6930    -2.7855     0.1931 N.2     
  13 N13            5.3242   -10.5845     1.8739 N.2     
  14 N14            5.7432   -11.1846     2.9026 N.2     
  15 O15           -2.1172    -0.8099     1.6170 O.2     
  16 C16           -4.4590    -1.0053     1.3996 C.3     
  17 C17            2.3521    -5.6401     0.1099 C.3     
  18 C18            4.2152    -7.6377     0.8845 C.3     
  19 C19           -5.1854    -1.9933     2.3145 C.3     
  20 C20           -4.5654    -1.9615     3.7225 C.3     
  21 C21           -6.6625    -1.5781     2.4740 C.3     
  22 C22           -6.9937    -1.9117     3.9498 C.3     
  23 C23           -5.6874    -1.5280     4.6884 C.3     
  24 S24            3.7954    -6.5505    -0.5056 S.3     
  25 N25            7.1419   -11.0529     4.8399 N.am    
  26 C26            6.8233   -12.2914     5.2654 C.2     
  27 C27            7.3465   -12.7920     6.5870 C.3     
  28 O28            6.1154   -13.0031     4.5846 O.2     
  29 C29            6.3510   -13.7878     7.1855 C.3     
  30 C30            8.6941   -13.4842     6.3729 C.3     
  31 C31            6.8006   -14.1769     8.5703 C.2     
  32 O32            6.0638   -15.0286     9.3006 O.3     
  33 O33            7.8244   -13.7222     9.0231 O.2     
  34 C34            6.5577   -15.3586    10.6255 C.3     
  35 C35            6.6621   -14.0827    11.4633 C.3     
  36 C36            5.5925   -16.3348    11.3011 C.3     
  37 C37            7.9389   -16.0062    10.5083 C.3     
  38 C38            8.5477   -14.6145     5.3391 C.3     
  39 C39            9.4848   -14.2623     4.1655 C.3     
  40 C40           10.5483   -13.3289     4.7955 C.3     
  41 C41            9.7151   -12.4846     5.7914 C.3     
  42 N42           -4.4520     0.3213     2.0211 N.am    
  43 C43           -5.3945     1.2258     1.6895 C.2     
  44 O44           -5.3232     2.4804     2.1730 O.3     
  45 O45           -6.3086     0.9091     0.9543 O.2     
  46 C46           -6.3725     3.4012     1.7739 C.3     
  47 C47           -7.7279     2.8600     2.2334 C.3     
  48 C48           -6.1242     4.7671     2.4171 C.3     
  49 C49           -6.3713     3.5469     0.2509 C.3     
  50 H50           -3.5360    -3.1734     0.2325 H       
  51 H51            1.5931    -5.2184    -1.8617 H       
  52 H52            2.6671    -3.9612    -1.2027 H       
  53 H53            6.2791    -7.8340     0.2991 H       
  54 H54            5.2051    -9.0912    -0.3599 H       
  55 H55           -4.9727    -0.9541     0.4396 H       
  56 H56            2.6277    -5.0857     1.0069 H       
  57 H57            1.5537    -6.3429     0.3480 H       
  58 H58            3.3702    -8.2905     1.1033 H       
  59 H59            4.4442    -7.0333     1.7622 H       
  60 H60           -5.1223    -3.0001     1.9015 H       
  61 H61           -4.2022    -2.9530     3.9931 H       
  62 H62           -3.7471    -1.2422     3.7540 H       
  63 H63           -6.7808    -0.5105     2.2883 H       
  64 H64           -7.2960    -2.1558     1.8008 H       
  65 H65           -7.8293    -1.3081     4.3041 H       
  66 H66           -7.2061    -2.9743     4.0673 H       
  67 H67           -5.6093    -2.0692     5.6313 H       
  68 H68           -5.6483    -0.4524     4.8604 H       
  69 H69            7.7621   -10.5093     5.3506 H       
  70 H70            7.4741   -11.9514     7.2692 H       
  71 H71            5.3645   -13.3273     7.2398 H       
  72 H72            6.3030   -14.6764     6.5560 H       
  73 H73            9.0608   -13.8869     7.3171 H       
  74 H74            5.6780   -13.6213    11.5469 H       
  75 H75            7.0328   -14.3304    12.4580 H       
  76 H76            7.3497   -13.3872    10.9820 H       
  77 H77            5.5181   -17.2438    10.7042 H       
  78 H78            5.9632   -16.5825    12.2957 H       
  79 H79            4.6084   -15.8735    11.3846 H       
  80 H80            8.6266   -15.3108    10.0270 H       
  81 H81            8.3097   -16.2539    11.5029 H       
  82 H82            7.8646   -16.9152     9.9114 H       
  83 H83            8.8442   -15.5656     5.7813 H       
  84 H84            7.5166   -14.6699     4.9899 H       
  85 H85            9.9543   -15.1625     3.7688 H       
  86 H86            8.9354   -13.7405     3.3819 H       
  87 H87           11.3078   -13.9079     5.3209 H       
  88 H88           11.0028   -12.6929     4.0358 H       
  89 H89            9.2029   -11.6757     5.2704 H       
  90 H90           10.3526   -12.0875     6.5814 H       
  91 H91           -3.7689     0.5486     2.6712 H       
  92 H92           -7.7288     2.7562     3.3184 H       
  93 H93           -8.5156     3.5512     1.9338 H       
  94 H94           -7.9048     1.8869     1.7752 H       
  95 H95           -5.1587     5.1526     2.0898 H       
  96 H96           -6.9120     5.4583     2.1175 H       
  97 H97           -6.1251     4.6633     3.5021 H       
  98 H98           -6.5482     2.5738    -0.2073 H       
  99 H99           -7.1590     4.2381    -0.0487 H       
 100 H100          -5.4057     3.9324    -0.0764 H       
@<TRIPOS>BOND
   1    1    2 am
   2    1   15 2
   3    1   16 1
   4    2    3 1
   5    2   50 1
   6    3    4 1
   7    3   11 2
   8    4    5 1
   9    5    6 1
  10    5   12 2
  11    6   17 1
  12    6   51 1
  13    6   52 1
  14    7    8 1
  15    7   18 1
  16    7   53 1
  17    7   54 1
  18    8    9 1
  19    8   13 2
  20    9   10 1
  21   10   25 1
  22   10   14 2
  23   11   12 1
  24   13   14 1
  25   16   19 1
  26   16   42 1
  27   16   55 1
  28   17   24 1
  29   17   56 1
  30   17   57 1
  31   18   24 1
  32   18   58 1
  33   18   59 1
  34   19   20 1
  35   19   21 1
  36   19   60 1
  37   20   23 1
  38   20   61 1
  39   20   62 1
  40   21   22 1
  41   21   63 1
  42   21   64 1
  43   22   23 1
  44   22   65 1
  45   22   66 1
  46   23   67 1
  47   23   68 1
  48   25   26 am
  49   25   69 1
  50   26   27 1
  51   26   28 2
  52   27   29 1
  53   27   30 1
  54   27   70 1
  55   29   31 1
  56   29   71 1
  57   29   72 1
  58   30   38 1
  59   30   41 1
  60   30   73 1
  61   31   32 1
  62   31   33 2
  63   32   34 1
  64   34   35 1
  65   34   36 1
  66   34   37 1
  67   35   74 1
  68   35   75 1
  69   35   76 1
  70   36   77 1
  71   36   78 1
  72   36   79 1
  73   37   80 1
  74   37   81 1
  75   37   82 1
  76   38   39 1
  77   38   83 1
  78   38   84 1
  79   39   40 1
  80   39   85 1
  81   39   86 1
  82   40   41 1
  83   40   87 1
  84   40   88 1
  85   41   89 1
  86   41   90 1
  87   42   43 am
  88   42   91 1
  89   43   44 1
  90   43   45 2
  91   44   46 1
  92   46   47 1
  93   46   48 1
  94   46   49 1
  95   47   92 1
  96   47   93 1
  97   47   94 1
  98   48   95 1
  99   48   96 1
 100   48   97 1
 101   49   98 1
 102   49   99 1
 103   49  100 1

#	End of record

