#	Name: ASD01811408
#	Creating user name:	WinNT
#	Creation time:	15. 06. 2019 19:26

#	Modifying user name:	WinNT
#	Modification time:	15. 06. 2019 19:26

#	Program:	/corina/corina34_cracker 3.40 0067  02.08.2006

@<TRIPOS>MOLECULE
ASD01811408
  75   80    0    0    0
SMALL
NO_CHARGES


@<TRIPOS>ATOM
   1 C1            -0.1950     1.6864    -1.1761 C.2     
   2 C2            -0.1605     0.2352    -1.4386 C.ar    
   3 C3             0.8603    -0.3221    -2.2244 C.ar    
   4 C4             0.8532    -1.6732    -2.4415 C.ar    
   5 C5            -0.1589    -2.4507    -1.8809 C.ar    
   6 N6            -1.1119    -1.8991    -1.1421 N.ar    
   7 C7            -1.1392    -0.6043    -0.9043 C.ar    
   8 O8             0.6650     2.4091    -1.6417 O.2     
   9 N9            -1.1828     2.2120    -0.4248 N.am    
  10 N10           -0.1695    -3.8180    -2.0988 N.3     
  11 C11           -1.3125    -4.4499    -1.4251 C.3     
  12 C12           -1.3333    -5.9443    -1.7551 C.3     
  13 N13           -0.0682    -6.5560    -1.3249 N.3     
  14 C14            1.0748    -5.9241    -1.9987 C.3     
  15 C15            1.0956    -4.4297    -1.6687 C.3     
  16 C16           -0.0795    -8.0066    -1.5562 C.3     
  17 C17           -1.1611     3.5705    -0.0920 C.ar    
  18 C18           -2.3537     4.2704     0.0502 C.ar    
  19 C19           -2.3376     5.6127     0.3789 C.ar    
  20 C20           -1.1373     6.2674     0.5681 C.ar    
  21 C21            0.0657     5.5735     0.4281 C.ar    
  22 C22            0.0494     4.2174     0.1015 C.ar    
  23 C23           -3.6685     3.5632    -0.1551 C.3     
  24 C24            1.3530     6.2724     0.6302 C.2     
  25 O25            2.2226     5.7605     1.3078 O.2     
  26 C26            2.2922     9.3127    -1.9523 C.3     
  27 O27            2.0424    10.5295    -1.2311 O.3     
  28 C28            2.9538    11.4894    -1.7981 C.3     
  29 C29            3.1871    11.0490    -3.2249 C.ar    
  30 C30            3.6890    11.6997    -4.3296 C.ar    
  31 C31            3.7907    11.0234    -5.5475 C.ar    
  32 C32            3.3822     9.6908    -5.6353 C.ar    
  33 C33            2.8815     9.0502    -4.5205 C.ar    
  34 C34            2.7838     9.7239    -3.3184 C.ar    
  35 N35            1.5621     7.4770     0.0631 N.am    
  36 C36            2.8691     8.1390     0.1739 C.3     
  37 C37            3.3623     8.4935    -1.2330 C.3     
  38 C38            1.0006     8.5072    -2.0768 C.3     
  39 C39            0.4872     8.1517    -0.6773 C.3     
  40 C40            4.3112    11.6936    -6.7010 C.1     
  41 N41            4.7241    12.2252    -7.6161 N.1     
  42 H42            1.6336     0.3014    -2.6483 H       
  43 H43            1.6244    -2.1328    -3.0419 H       
  44 H44           -1.9273    -0.1881    -0.2943 H       
  45 H45           -1.9087     1.6482    -0.1148 H       
  46 H46           -1.2184    -4.3167    -0.3474 H       
  47 H47           -2.2381    -3.9885    -1.7695 H       
  48 H48           -2.1634    -6.4204    -1.2332 H       
  49 H49           -1.4548    -6.0777    -2.8301 H       
  50 H50            2.0003    -6.3855    -1.6543 H       
  51 H51            0.9807    -6.0572    -3.0764 H       
  52 H52            1.9257    -3.9536    -2.1906 H       
  53 H53            1.2170    -4.2963    -0.5937 H       
  54 H54           -0.2195    -8.2040    -2.6190 H       
  55 H55            0.8684    -8.4340    -1.2291 H       
  56 H56           -0.8956    -8.4581    -0.9921 H       
  57 H57           -3.2673     6.1513     0.4877 H       
  58 H58           -1.1289     7.3165     0.8242 H       
  59 H59            0.9770     3.6744    -0.0042 H       
  60 H60           -4.0099     3.1483     0.7933 H       
  61 H61           -4.4077     4.2718    -0.5288 H       
  62 H62           -3.5390     2.7581    -0.8783 H       
  63 H63            2.5100    12.4848    -1.7801 H       
  64 H64            3.8936    11.4867    -1.2458 H       
  65 H65            4.0028    12.7304    -4.2548 H       
  66 H66            3.4576     9.1627    -6.5743 H       
  67 H67            2.5651     8.0198    -4.5880 H       
  68 H68            2.7691     9.0486     0.7662 H       
  69 H69            3.5806     7.4655     0.6517 H       
  70 H70            3.5564     7.5781    -1.7919 H       
  71 H71            4.2798     9.0774    -1.1604 H       
  72 H72            0.2506     9.1010    -2.5994 H       
  73 H73            1.1951     7.5922    -2.6362 H       
  74 H74           -0.3720     7.4863    -0.7614 H       
  75 H75            0.1973     9.0618    -0.1523 H       
@<TRIPOS>BOND
   1    1    2 1
   2    1    8 2
   3    1    9 am
   4    2    3 ar
   5    2    7 ar
   6    3    4 ar
   7    3   42 1
   8    4    5 ar
   9    4   43 1
  10    5    6 ar
  11    5   10 1
  12    6    7 ar
  13    7   44 1
  14    9   17 1
  15    9   45 1
  16   10   11 1
  17   10   15 1
  18   11   12 1
  19   11   46 1
  20   11   47 1
  21   12   13 1
  22   12   48 1
  23   12   49 1
  24   13   14 1
  25   13   16 1
  26   14   15 1
  27   14   50 1
  28   14   51 1
  29   15   52 1
  30   15   53 1
  31   16   54 1
  32   16   55 1
  33   16   56 1
  34   17   18 ar
  35   17   22 ar
  36   18   19 ar
  37   18   23 1
  38   19   20 ar
  39   19   57 1
  40   20   21 ar
  41   20   58 1
  42   21   22 ar
  43   21   24 1
  44   22   59 1
  45   23   60 1
  46   23   61 1
  47   23   62 1
  48   24   25 2
  49   24   35 am
  50   26   27 1
  51   26   34 1
  52   26   37 1
  53   26   38 1
  54   27   28 1
  55   28   29 1
  56   28   63 1
  57   28   64 1
  58   29   30 ar
  59   29   34 ar
  60   30   31 ar
  61   30   65 1
  62   31   32 ar
  63   31   40 1
  64   32   33 ar
  65   32   66 1
  66   33   34 ar
  67   33   67 1
  68   35   36 1
  69   35   39 1
  70   36   37 1
  71   36   68 1
  72   36   69 1
  73   37   70 1
  74   37   71 1
  75   38   39 1
  76   38   72 1
  77   38   73 1
  78   39   74 1
  79   39   75 1
  80   40   41 3

#	End of record

