#	Name: ASD01913456
#	Creating user name:	WinNT
#	Creation time:	15. 06. 2019 20:01

#	Modifying user name:	WinNT
#	Modification time:	15. 06. 2019 20:01

#	Program:	/corina/corina34_cracker 3.40 0067  02.08.2006

@<TRIPOS>MOLECULE
ASD01913456
  38   40    0    0    0
SMALL
NO_CHARGES


@<TRIPOS>ATOM
   1 C1             0.8972     0.0668    -1.0447 C.ar    
   2 C2             0.0312    -0.0131     0.0412 C.ar    
   3 C3             0.3745     0.6244     1.2250 C.ar    
   4 N4             1.5037     1.2970     1.3237 N.ar    
   5 C5             2.3462     1.3921     0.3136 C.ar    
   6 C6             2.0736     0.7842    -0.8974 C.ar    
   7 C7            -1.0665    -2.0567    -0.1524 C.ar    
   8 C8            -2.2365    -2.8033    -0.1691 C.ar    
   9 C9            -2.1582    -4.1830    -0.2735 C.ar    
  10 C10           -0.9068    -4.7708    -0.3580 C.ar    
  11 C11            0.2245    -3.9643    -0.3356 C.ar    
  12 N12            0.1142    -2.6485    -0.2349 N.ar    
  13 N13            1.4875    -4.5459    -0.4200 N.am    
  14 C14            2.5842    -3.7666    -0.5009 C.2     
  15 O15           -1.1344    -0.7051    -0.0561 O.3     
  16 C16            3.9116    -4.3791    -0.7186 C.ar    
  17 C17            4.0329    -5.7642    -0.8407 C.ar    
  18 C18            5.2751    -6.3296    -1.0438 C.ar    
  19 C19            6.3987    -5.5268    -1.1264 C.ar    
  20 C20            6.2854    -4.1528    -1.0062 C.ar    
  21 C21            5.0489    -3.5743    -0.8087 C.ar    
  22 O22            2.4816    -2.5601    -0.3950 O.2     
  23 C23            7.5149    -3.2862    -1.0975 C.3     
  24 H24            0.6605    -0.4221    -1.9781 H       
  25 H25           -0.2907     0.5692     2.0741 H       
  26 H26            3.2613     1.9528     0.4341 H       
  27 H27            2.7693     0.8673    -1.7193 H       
  28 H28           -3.1971    -2.3145    -0.1012 H       
  29 H29           -3.0535    -4.7869    -0.2884 H       
  30 H30           -0.8115    -5.8435    -0.4399 H       
  31 H31            1.5777    -5.5117    -0.4204 H       
  32 H32            3.1566    -6.3921    -0.7761 H       
  33 H33            5.3704    -7.4012    -1.1381 H       
  34 H34            7.3687    -5.9744    -1.2851 H       
  35 H35            4.9618    -2.5019    -0.7150 H       
  36 H36            7.6808    -2.9991    -2.1358 H       
  37 H37            7.3746    -2.3914    -0.4910 H       
  38 H38            8.3787    -3.8413    -0.7315 H       
@<TRIPOS>BOND
   1    1    2 ar
   2    1    6 ar
   3    1   24 1
   4    2    3 ar
   5    2   15 1
   6    3    4 ar
   7    3   25 1
   8    4    5 ar
   9    5    6 ar
  10    5   26 1
  11    6   27 1
  12    7    8 ar
  13    7   12 ar
  14    7   15 1
  15    8    9 ar
  16    8   28 1
  17    9   10 ar
  18    9   29 1
  19   10   11 ar
  20   10   30 1
  21   11   12 ar
  22   11   13 1
  23   13   14 am
  24   13   31 1
  25   14   16 1
  26   14   22 2
  27   16   17 ar
  28   16   21 ar
  29   17   18 ar
  30   17   32 1
  31   18   19 ar
  32   18   33 1
  33   19   20 ar
  34   19   34 1
  35   20   21 ar
  36   20   23 1
  37   21   35 1
  38   23   36 1
  39   23   37 1
  40   23   38 1

#	End of record

