#	Name: ASD03331041
#	Creating user name:	WinNT
#	Creation time:	15. 06. 2019 20:38

#	Modifying user name:	WinNT
#	Modification time:	15. 06. 2019 20:38

#	Program:	/corina/corina34_cracker 3.40 0067  02.08.2006

@<TRIPOS>MOLECULE
ASD03331041
  68   71    0    0    0
SMALL
NO_CHARGES


@<TRIPOS>ATOM
   1 N1            -0.3167     1.4338    -0.2580 N.pl3   
   2 C2            -0.2242     0.0792    -0.1873 C.2     
   3 C3             1.0560    -0.7094    -0.0942 C.3     
   4 N4             1.9181    -0.1093     0.9360 N.3     
   5 C5             2.7745     0.9340     0.3688 C.3     
   6 C6             2.0608     1.6721    -0.7601 C.3     
   7 C7             0.8110     2.3689    -0.2153 C.3     
   8 C8            -1.6404     1.7480    -0.3623 C.2     
   9 N9            -2.3379     0.6366    -0.3388 N.2     
  10 C10           -1.4934    -0.4123    -0.2286 C.2     
  11 C11           -1.8771    -1.8336    -0.1650 C.2     
  12 O12           -1.0202    -2.6909    -0.0660 O.2     
  13 N13           -3.1776    -2.1834    -0.2165 N.am    
  14 C14            2.7191    -1.1362     1.6156 C.3     
  15 C15           -4.8978    -3.7857    -0.8189 C.2     
  16 C16           -3.5591    -3.5965    -0.1532 C.3     
  17 C17           -3.6505    -4.0351     1.3097 C.3     
  18 C18           -4.1740    -5.4710     1.3799 C.3     
  19 O19           -5.7505    -2.9288    -0.7205 O.2     
  20 C20           -2.2627    -3.9664     1.9503 C.3     
  21 C21           -4.6060    -3.1065     2.0618 C.3     
  22 N22           -5.1475    -4.9071    -1.5236 N.am    
  23 C23           -6.4371    -5.2686    -2.1302 C.3     
  24 C24           -6.2550    -6.6424    -2.8091 C.3     
  25 C25           -5.0316    -7.2388    -2.0640 C.3     
  26 C26           -4.1712    -5.9714    -1.8191 C.3     
  27 C27           -6.8183    -4.2611    -3.1334 C.1     
  28 N28           -7.1125    -3.4835    -3.9076 N.1     
  29 C29           -2.1965     3.1134    -0.4815 C.ar    
  30 C30           -3.1663     3.3944    -1.4477 C.ar    
  31 C31           -3.6817     4.6725    -1.5530 C.ar    
  32 C32           -3.2396     5.6713    -0.7048 C.ar    
  33 C33           -2.2786     5.3988     0.2540 C.ar    
  34 C34           -1.7595     4.1248     0.3738 C.ar    
  35 F35           -3.5985     2.4194    -2.2770 F       
  36 Cl36          -1.7299     6.6604     1.3128 Cl      
  37 H37            0.8296    -1.7409     0.1757 H       
  38 H38            1.5682    -0.6874    -1.0560 H       
  39 H39            3.0381     1.6455     1.1514 H       
  40 H40            3.6846     0.4778    -0.0207 H       
  41 H41            2.7327     2.4159    -1.1885 H       
  42 H42            1.7708     0.9597    -1.5324 H       
  43 H43            0.5842     3.2417    -0.8277 H       
  44 H44            0.9872     2.6806     0.8142 H       
  45 H45           -3.8611    -1.4996    -0.2954 H       
  46 H46            3.2963    -1.6938     0.8780 H       
  47 H47            3.3976    -0.6587     2.3226 H       
  48 H48            2.0578    -1.8179     2.1504 H       
  49 H49           -2.8096    -4.1985    -0.6669 H       
  50 H50           -3.4528    -6.1438     0.9159 H       
  51 H51           -4.3173    -5.7550     2.4224 H       
  52 H52           -5.1250    -5.5372     0.8513 H       
  53 H53           -1.8897    -2.9434     1.9004 H       
  54 H54           -2.3278    -4.2788     2.9926 H       
  55 H55           -1.5820    -4.6279     1.4145 H       
  56 H56           -5.5946    -3.1555     1.6054 H       
  57 H57           -4.6710    -3.4190     3.1040 H       
  58 H58           -4.2330    -2.0835     2.0118 H       
  59 H59           -7.2040    -5.3351    -1.3586 H       
  60 H60           -7.1373    -7.2653    -2.6619 H       
  61 H61           -6.0390    -6.5224    -3.8707 H       
  62 H62           -5.3333    -7.6982    -1.1227 H       
  63 H63           -4.5011    -7.9534    -2.6933 H       
  64 H64           -3.5965    -5.7220    -2.7111 H       
  65 H65           -3.5064    -6.1232    -0.9687 H       
  66 H66           -4.4310     4.8917    -2.2993 H       
  67 H67           -3.6454     6.6684    -0.7910 H       
  68 H68           -1.0135     3.9130     1.1255 H       
@<TRIPOS>BOND
   1    1    2 1
   2    1    7 1
   3    1    8 1
   4    2    3 1
   5    2   10 2
   6    3    4 1
   7    3   37 1
   8    3   38 1
   9    4    5 1
  10    4   14 1
  11    5    6 1
  12    5   39 1
  13    5   40 1
  14    6    7 1
  15    6   41 1
  16    6   42 1
  17    7   43 1
  18    7   44 1
  19    8    9 2
  20    8   29 1
  21    9   10 1
  22   10   11 1
  23   11   12 2
  24   11   13 am
  25   13   16 1
  26   13   45 1
  27   14   46 1
  28   14   47 1
  29   14   48 1
  30   15   19 2
  31   15   22 am
  32   15   16 1
  33   16   17 1
  34   16   49 1
  35   17   18 1
  36   17   20 1
  37   17   21 1
  38   18   50 1
  39   18   51 1
  40   18   52 1
  41   20   53 1
  42   20   54 1
  43   20   55 1
  44   21   56 1
  45   21   57 1
  46   21   58 1
  47   22   23 1
  48   22   26 1
  49   23   24 1
  50   23   27 1
  51   23   59 1
  52   24   25 1
  53   24   60 1
  54   24   61 1
  55   25   26 1
  56   25   62 1
  57   25   63 1
  58   26   64 1
  59   26   65 1
  60   27   28 3
  61   29   30 ar
  62   29   34 ar
  63   30   31 ar
  64   30   35 1
  65   31   32 ar
  66   31   66 1
  67   32   33 ar
  68   32   67 1
  69   33   34 ar
  70   33   36 1
  71   34   68 1

#	End of record

