#	Name: ASD09080050
#	Creating user name:	WinNT
#	Creation time:	15. 06. 2019 21:20

#	Modifying user name:	WinNT
#	Modification time:	15. 06. 2019 21:20

#	Program:	/corina/corina34_cracker 3.40 0067  02.08.2006

@<TRIPOS>MOLECULE
ASD09080050
  72   73    0    0    0
SMALL
NO_CHARGES


@<TRIPOS>ATOM
   1 C1            -0.0166     1.3760     0.0096 C.ar    
   2 C2             0.0021    -0.0041     0.0020 C.ar    
   3 C3             1.2195    -0.6816    -0.0133 C.ar    
   4 C4             2.4120     0.0390    -0.0209 C.ar    
   5 C5             2.3816     1.4188    -0.0132 C.ar    
   6 C6             1.1702     2.0863     0.0021 C.ar    
   7 C7             1.1434     3.5931     0.0104 C.3     
   8 C8             1.1204     4.1107    -1.4291 C.3     
   9 C9             0.9676     5.6330    -1.4213 C.3     
  10 N10            2.3726     3.7491    -2.0982 N.am    
  11 C11            0.9446     6.1507    -2.8609 C.3     
  12 O12           -0.0827     5.4786    -3.5924 O.3     
  13 O13           -0.2538     5.9858    -0.7688 O.3     
  14 C14            2.4097     3.6303    -3.4402 C.2     
  15 C15            3.6977     3.2583    -4.1284 C.3     
  16 O16            1.4065     3.8229    -4.0940 O.2     
  17 C17            1.2459    -2.1653    -0.0210 C.ar    
  18 C18            2.4634    -2.8426    -0.0363 C.ar    
  19 C19            2.4827    -4.2239    -0.0435 C.ar    
  20 C20            1.2952    -4.9350    -0.0355 C.ar    
  21 C21            0.0832    -4.2667    -0.0203 C.ar    
  22 C22            0.0534    -2.8856    -0.0072 C.ar    
  23 Cl23           3.9989    -5.0692    -0.0632 Cl      
  24 Cl24          -1.4019    -5.1656    -0.0104 Cl      
  25 C25            4.7631     4.3125    -3.8210 C.3     
  26 C26            0.6714     7.6327    -2.8575 C.2     
  27 O27           -0.3483     8.0602    -3.3447 O.2     
  28 O28            1.5609     8.4779    -2.3133 O.3     
  29 C29            2.3557    10.6921    -1.6841 C.3     
  30 C30            1.2319     9.8918    -2.3455 C.3     
  31 N31            3.4774     3.1941    -5.5753 N.am    
  32 O32            4.0718     2.3674    -7.6746 O.3     
  33 C33            4.9682     1.5203    -8.4409 C.3     
  34 C34            4.8562     0.0777    -7.9436 C.3     
  35 C35            4.5859     1.5806    -9.9211 C.3     
  36 C36            6.4071     2.0100    -8.2654 C.3     
  37 C37            4.2742     2.4264    -6.3448 C.2     
  38 O38            5.1753     1.7875    -5.8385 O.2     
  39 H39           -0.9597     1.9022     0.0169 H       
  40 H40           -0.9252    -0.5577     0.0083 H       
  41 H41            3.3584    -0.4812    -0.0324 H       
  42 H42            3.3053     1.9784    -0.0190 H       
  43 H43            0.2521     3.9377     0.5347 H       
  44 H44            2.0317     3.9695     0.5178 H       
  45 H45            0.2813     3.6640    -1.9625 H       
  46 H46            1.8066     6.0797    -0.8879 H       
  47 H47            3.1749     3.5951    -1.5753 H       
  48 H48            1.9094     5.9602    -3.3310 H       
  49 H49           -0.9702     5.6043    -3.2298 H       
  50 H50           -1.0443     5.6218    -1.1903 H       
  51 H51            4.0342     2.2860    -3.7686 H       
  52 H52            3.3904    -2.2886    -0.0429 H       
  53 H53            1.3145    -6.0148    -0.0416 H       
  54 H54           -0.8928    -2.3651     0.0046 H       
  55 H55            4.4266     5.2849    -4.1808 H       
  56 H56            4.9270     4.3603    -2.7444 H       
  57 H57            5.6947     4.0435    -4.3188 H       
  58 H58            3.2878    10.5236    -2.2235 H       
  59 H59            2.1088    11.7535    -1.7083 H       
  60 H60            2.4712    10.3694    -0.6494 H       
  61 H61            1.1164    10.2145    -3.3802 H       
  62 H62            0.2998    10.0603    -1.8062 H       
  63 H63            2.7581     3.7041    -5.9795 H       
  64 H64            3.8311    -0.2711    -8.0686 H       
  65 H65            5.5291    -0.5582    -8.5188 H       
  66 H66            5.1286     0.0348    -6.8890 H       
  67 H67            4.6656     2.6083   -10.2754 H       
  68 H68            5.2588     0.9447   -10.4964 H       
  69 H69            3.5608     1.2317   -10.0461 H       
  70 H70            6.6794     1.9671    -7.2109 H       
  71 H71            7.0800     1.3741    -8.8407 H       
  72 H72            6.4868     3.0377    -8.6197 H       
@<TRIPOS>BOND
   1    1    2 ar
   2    1    6 ar
   3    1   39 1
   4    2    3 ar
   5    2   40 1
   6    3    4 ar
   7    3   17 1
   8    4    5 ar
   9    4   41 1
  10    5    6 ar
  11    5   42 1
  12    6    7 1
  13    7    8 1
  14    7   43 1
  15    7   44 1
  16    8    9 1
  17    8   10 1
  18    8   45 1
  19    9   11 1
  20    9   13 1
  21    9   46 1
  22   10   14 am
  23   10   47 1
  24   11   12 1
  25   11   26 1
  26   11   48 1
  27   12   49 1
  28   13   50 1
  29   14   15 1
  30   14   16 2
  31   15   25 1
  32   15   31 1
  33   15   51 1
  34   17   18 ar
  35   17   22 ar
  36   18   19 ar
  37   18   52 1
  38   19   20 ar
  39   19   23 1
  40   20   21 ar
  41   20   53 1
  42   21   22 ar
  43   21   24 1
  44   22   54 1
  45   25   55 1
  46   25   56 1
  47   25   57 1
  48   26   27 2
  49   26   28 1
  50   28   30 1
  51   29   30 1
  52   29   58 1
  53   29   59 1
  54   29   60 1
  55   30   61 1
  56   30   62 1
  57   31   37 am
  58   31   63 1
  59   32   33 1
  60   32   37 1
  61   33   34 1
  62   33   35 1
  63   33   36 1
  64   34   64 1
  65   34   65 1
  66   34   66 1
  67   35   67 1
  68   35   68 1
  69   35   69 1
  70   36   70 1
  71   36   71 1
  72   36   72 1
  73   37   38 2

#	End of record

