#	Name: ASD01940065
#	Creating user name:	WinNT
#	Creation time:	15. 06. 2019 20:11

#	Modifying user name:	WinNT
#	Modification time:	15. 06. 2019 20:11

#	Program:	/corina/corina34_cracker 3.40 0067  02.08.2006

@<TRIPOS>MOLECULE
ASD01940065
  55   56    0    0    0
SMALL
NO_CHARGES


@<TRIPOS>ATOM
   1 C1            -0.0187     1.5258     0.0104 C.3     
   2 C2             0.0021    -0.0041     0.0020 C.3     
   3 N3            -1.3723    -0.5112     0.0124 N.pl3   
   4 C4            -1.6079    -1.8819     0.0073 C.ar    
   5 C5            -2.9141    -2.3608     0.0172 C.ar    
   6 C6            -3.1634    -3.7163    -0.0112 C.ar    
   7 C7            -4.5327    -4.2566    -0.0305 C.2     
   8 C8            -5.4877    -3.7936     0.7570 C.2     
   9 C9            -6.8659    -4.4142     0.6777 C.3     
  10 C10           -7.0188    -5.4442     1.7978 C.3     
  11 O11           -5.9768    -5.2601     2.7582 O.3     
  12 C12           -6.9313    -6.8574     1.2162 C.3     
  13 O13           -7.8213    -7.7202     1.9271 O.3     
  14 C14           -5.5168    -7.3752     1.3471 C.2     
  15 O15           -4.6192    -6.6335     1.6880 O.2     
  16 C16           -5.2446    -8.7878     1.0556 C.2     
  17 C17           -4.0048    -9.2690     1.1412 C.2     
  18 C18           -2.8668    -8.3649     1.5426 C.3     
  19 C19           -1.8146    -8.3591     0.4315 C.3     
  20 O20           -1.4029    -6.9937     0.1516 O.3     
  21 C21           -2.3683    -6.0645     0.0891 C.2     
  22 O22           -3.5291    -6.4263     0.0890 O.2     
  23 C23           -2.0765    -4.6272     0.0211 C.ar    
  24 C24           -0.7659    -4.1344    -0.0005 C.ar    
  25 C25           -0.5370    -2.7690    -0.0134 C.ar    
  26 O26            0.2813    -4.9965    -0.0150 O.3     
  27 C27           -0.5998    -9.1756     0.8770 C.3     
  28 C28           -2.2383    -8.8789     2.8394 C.3     
  29 H29            1.0039     1.9031     0.0027 H       
  30 H30           -0.5459     1.8868    -0.8726 H       
  31 H31           -0.5289     1.8773     0.9072 H       
  32 H32            0.5123    -0.3556    -0.8948 H       
  33 H33            0.5293    -0.3651     0.8851 H       
  34 H34           -2.1181     0.1091     0.0229 H       
  35 H35           -3.7394    -1.6649     0.0477 H       
  36 H36           -4.7667    -5.0476    -0.7524 H       
  37 H37           -5.3245    -2.9817     1.4601 H       
  38 H38           -7.6221    -3.6375     0.7914 H       
  39 H39           -6.9892    -4.9051    -0.2877 H       
  40 H40           -7.9861    -5.3118     2.2825 H       
  41 H41           -5.9734    -4.3862     3.1722 H       
  42 H42           -7.2123    -6.8343     0.1633 H       
  43 H43           -7.8185    -8.6343     1.6118 H       
  44 H44           -6.0737    -9.4400     0.7838 H       
  45 H45           -3.8168   -10.3169     0.9061 H       
  46 H46           -3.2418    -7.3528     1.6945 H       
  47 H47           -2.2372    -8.8023    -0.4702 H       
  48 H48            0.4750    -2.3921    -0.0305 H       
  49 H49            0.5711    -5.2485    -0.9025 H       
  50 H50           -0.9067   -10.2012     1.0821 H       
  51 H51            0.1503    -9.1720     0.0862 H       
  52 H52           -0.1775    -8.7352     1.7803 H       
  53 H53           -1.8614    -9.8899     2.6847 H       
  54 H54           -1.4158    -8.2248     3.1287 H       
  55 H55           -2.9900    -8.8883     3.6286 H       
@<TRIPOS>BOND
   1    1    2 1
   2    1   29 1
   3    1   30 1
   4    1   31 1
   5    2    3 1
   6    2   32 1
   7    2   33 1
   8    3    4 1
   9    3   34 1
  10    4    5 ar
  11    4   25 ar
  12    5    6 ar
  13    5   35 1
  14    6    7 1
  15    6   23 ar
  16    7    8 2
  17    7   36 1
  18    8    9 1
  19    8   37 1
  20    9   10 1
  21    9   38 1
  22    9   39 1
  23   10   11 1
  24   10   12 1
  25   10   40 1
  26   11   41 1
  27   12   13 1
  28   12   14 1
  29   12   42 1
  30   13   43 1
  31   14   15 2
  32   14   16 1
  33   16   17 2
  34   16   44 1
  35   17   18 1
  36   17   45 1
  37   18   19 1
  38   18   28 1
  39   18   46 1
  40   19   20 1
  41   19   27 1
  42   19   47 1
  43   20   21 1
  44   21   22 2
  45   21   23 1
  46   23   24 ar
  47   24   25 ar
  48   24   26 1
  49   25   48 1
  50   26   49 1
  51   27   50 1
  52   27   51 1
  53   27   52 1
  54   28   53 1
  55   28   54 1
  56   28   55 1

#	End of record

