#	Name: ASD01820162
#	Creating user name:	WinNT
#	Creation time:	15. 06. 2019 19:36

#	Modifying user name:	WinNT
#	Modification time:	15. 06. 2019 19:36

#	Program:	/corina/corina34_cracker 3.40 0067  02.08.2006

@<TRIPOS>MOLECULE
ASD01820162
  82   85    0    0    0
SMALL
NO_CHARGES


@<TRIPOS>ATOM
   1 C1            -0.0170     1.4014     0.0097 C.ar    
   2 C2             0.0021    -0.0041     0.0020 C.ar    
   3 C3            -1.4183    -0.4294     0.0138 C.2     
   4 N4            -2.1946     0.6689     0.0274 N.am    
   5 C5            -1.4483     1.7879     0.0314 C.2     
   6 C6            -3.6594     0.6489     0.0410 C.3     
   7 C7            -4.1558     0.6337     1.4881 C.3     
   8 C8            -5.6856     0.6129     1.5024 C.3     
   9 N9            -6.1623     0.5983     2.8918 N.4     
  10 C10           -7.6311     0.5783     2.9055 C.3     
  11 C11           -8.1275     0.5631     4.3526 C.3     
  12 C12           -9.6573     0.5423     4.3668 C.3     
  13 C13          -10.1537     0.5271     5.8140 C.3     
  14 C14          -11.6835     0.5062     5.8282 C.3     
  15 C15          -12.1799     0.4910     7.2754 C.3     
  16 N16          -13.6487     0.4710     7.2890 N.4     
  17 C17          -14.1253     0.4564     8.6785 C.3     
  18 C18          -15.6551     0.4356     8.6927 C.3     
  19 N19          -17.6163     0.4004    10.1535 N.am    
  20 O20           -1.8752     2.9242     0.0431 O.2     
  21 O21           -1.8142    -1.5769     0.0109 O.2     
  22 C22          -16.1515     0.4204    10.1398 C.3     
  23 C23          -18.3622    -0.7190    10.1540 C.2     
  24 C24          -19.7893    -0.3341    10.1696 C.ar    
  25 C25          -19.8084     1.0756    10.1779 C.ar    
  26 C26          -18.3923     1.4991    10.1728 C.2     
  27 C27          -20.9816    -1.0393    10.1771 C.ar    
  28 C28          -22.1862    -0.3527    10.1927 C.ar    
  29 C29          -22.2049     1.0290    10.2008 C.ar    
  30 C30          -21.0194     1.7480    10.1931 C.ar    
  31 O31          -17.9347    -1.8557    10.1432 O.2     
  32 O32          -17.9957     2.6470    10.1774 O.2     
  33 C33          -14.1610     1.6676     6.6081 C.3     
  34 C34          -14.1285    -0.7310     6.5941 C.3     
  35 C35           -5.6499    -0.5983     3.5727 C.3     
  36 C36           -5.6824     1.8003     3.5867 C.3     
  37 N37            1.1205     2.0765     0.0025 N.ar    
  38 C38            2.2692     1.4241    -0.0120 C.ar    
  39 C39            2.2880     0.0355    -0.0196 C.ar    
  40 N40            1.1574    -0.6479    -0.0125 N.ar    
  41 H41           -4.0396     1.5368    -0.4642 H       
  42 H42           -4.0155    -0.2429    -0.4747 H       
  43 H43           -3.7757    -0.2542     1.9933 H       
  44 H44           -3.7998     1.5256     2.0038 H       
  45 H45           -6.0658     1.5008     0.9971 H       
  46 H46           -6.0417    -0.2790     0.9867 H       
  47 H47           -8.0112     1.4662     2.4003 H       
  48 H48           -7.9871    -0.3136     2.3898 H       
  49 H49           -7.7473    -0.3248     4.8578 H       
  50 H50           -7.7714     1.4550     4.8683 H       
  51 H51          -10.0374     1.4302     3.8616 H       
  52 H52          -10.0133    -0.3496     3.8512 H       
  53 H53           -9.7735    -0.3608     6.3192 H       
  54 H54           -9.7976     1.4189     6.3296 H       
  55 H55          -12.0636     1.3941     5.3230 H       
  56 H56          -12.0395    -0.3857     5.3126 H       
  57 H57          -11.7997    -0.3969     7.7806 H       
  58 H58          -11.8238     1.3829     7.7910 H       
  59 H59          -13.7451    -0.4315     9.1837 H       
  60 H60          -13.7692     1.3483     9.1941 H       
  61 H61          -16.0352     1.3235     8.1875 H       
  62 H62          -16.0111    -0.4563     8.1770 H       
  63 H63          -15.7713    -0.4675    10.6450 H       
  64 H64          -15.7954     1.3123    10.6555 H       
  65 H65          -20.9730    -2.1192    10.1705 H       
  66 H66          -23.1163    -0.9017    10.1983 H       
  67 H67          -23.1495     1.5524    10.2130 H       
  68 H68          -21.0401     2.8278    10.1995 H       
  69 H69          -13.8074     1.6785     5.5772 H       
  70 H70          -15.2509     1.6528     6.6183 H       
  71 H71          -13.8050     2.5595     7.1238 H       
  72 H72          -13.7483    -1.6189     7.0993 H       
  73 H73          -15.2183    -0.7458     6.6042 H       
  74 H74          -13.7748    -0.7201     5.5631 H       
  75 H75           -4.5600    -0.5835     3.5625 H       
  76 H76           -6.0035    -0.6091     4.6037 H       
  77 H77           -6.0059    -1.4902     3.0570 H       
  78 H78           -6.0626     2.6882     3.0815 H       
  79 H79           -6.0361     1.7895     4.6177 H       
  80 H80           -4.5926     1.8151     3.5766 H       
  81 H81            3.1988     1.9737    -0.0182 H       
  82 H82            3.2322    -0.4887    -0.0314 H       
@<TRIPOS>BOND
   1    1    2 ar
   2    1   37 ar
   3    1    5 1
   4    2    3 1
   5    2   40 ar
   6    3    4 am
   7    3   21 2
   8    4    5 am
   9    4    6 1
  10    5   20 2
  11    6    7 1
  12    6   41 1
  13    6   42 1
  14    7    8 1
  15    7   43 1
  16    7   44 1
  17    8    9 1
  18    8   45 1
  19    8   46 1
  20    9   10 1
  21    9   35 1
  22    9   36 1
  23   10   11 1
  24   10   47 1
  25   10   48 1
  26   11   12 1
  27   11   49 1
  28   11   50 1
  29   12   13 1
  30   12   51 1
  31   12   52 1
  32   13   14 1
  33   13   53 1
  34   13   54 1
  35   14   15 1
  36   14   55 1
  37   14   56 1
  38   15   16 1
  39   15   57 1
  40   15   58 1
  41   16   17 1
  42   16   33 1
  43   16   34 1
  44   17   18 1
  45   17   59 1
  46   17   60 1
  47   18   22 1
  48   18   61 1
  49   18   62 1
  50   19   23 am
  51   19   22 1
  52   19   26 am
  53   22   63 1
  54   22   64 1
  55   23   24 1
  56   23   31 2
  57   24   25 ar
  58   24   27 ar
  59   25   26 1
  60   25   30 ar
  61   26   32 2
  62   27   28 ar
  63   27   65 1
  64   28   29 ar
  65   28   66 1
  66   29   30 ar
  67   29   67 1
  68   30   68 1
  69   33   69 1
  70   33   70 1
  71   33   71 1
  72   34   72 1
  73   34   73 1
  74   34   74 1
  75   35   75 1
  76   35   76 1
  77   35   77 1
  78   36   78 1
  79   36   79 1
  80   36   80 1
  81   37   38 ar
  82   38   39 ar
  83   38   81 1
  84   39   40 ar
  85   39   82 1

#	End of record

