#	Name: ASD04570053
#	Creating user name:	WinNT
#	Creation time:	15. 06. 2019 20:50

#	Modifying user name:	WinNT
#	Modification time:	15. 06. 2019 20:50

#	Program:	/corina/corina34_cracker 3.40 0067  02.08.2006

@<TRIPOS>MOLECULE
ASD04570053
 415  414    0    0    0
SMALL
NO_CHARGES


@<TRIPOS>ATOM
   1 N1            -6.0852     1.8108    -2.9355 N.3     
   2 C2            -6.0671     0.3907    -3.3108 C.3     
   3 C3            -5.7971    -0.4485    -2.0885 C.2     
   4 N4            -5.7350    -1.7907    -2.1929 N.am    
   5 C5            -5.3645    -2.5996    -1.0289 C.3     
   6 C6            -5.9785    -3.9702    -1.1538 C.2     
   7 N7            -5.8084    -4.8768    -0.1711 N.am    
   8 C8            -6.4052    -6.2092    -0.2924 C.3     
   9 C9            -5.6210    -7.1888     0.5421 C.2     
  10 N10           -5.9894    -8.4846     0.5842 N.am    
  11 C11           -5.2270    -9.4368     1.3955 C.3     
  12 C12           -6.1140   -10.5934     1.7785 C.2     
  13 N13           -5.8727   -11.2811     2.9122 N.am    
  14 C14           -6.6779   -12.4605     3.2390 C.3     
  15 C15           -5.8885   -13.3734     4.1416 C.2     
  16 N16           -6.4321   -14.5283     4.5742 N.am    
  17 C17           -5.7530     2.6633    -4.0848 C.3     
  18 C18           -7.4222     0.0032    -3.9062 C.3     
  19 O19           -5.6357     0.0841    -1.0109 O.2     
  20 C20           -3.8414    -2.7273    -0.9606 C.3     
  21 C21           -3.3165    -3.2856    -2.2849 C.3     
  22 C22           -1.7878    -3.2230    -2.2946 C.3     
  23 C23           -3.7685    -4.7390    -2.4405 C.3     
  24 O24           -6.6255    -4.2575    -2.1385 O.2     
  25 C25           -7.8537    -6.1659     0.1986 C.3     
  26 C26           -8.6786    -5.2673    -0.7250 C.3     
  27 C27          -10.1270    -5.2240    -0.2340 C.3     
  28 C28          -10.9519    -4.3253    -1.1575 C.3     
  29 N29          -12.3426    -4.2838    -0.6861 N.3     
  30 O30           -4.6584    -6.8112     1.1758 O.2     
  31 C31           -4.0345    -9.9541     0.5886 C.3     
  32 C32           -3.2222   -10.9269     1.4458 C.3     
  33 O33           -4.5063   -10.6283    -0.5797 O.3     
  34 O34           -7.0450   -10.9054     1.0666 O.2     
  35 C35           -7.9589   -12.0221     3.9514 C.3     
  36 O36           -7.6215   -11.3277     5.1539 O.3     
  37 C37           -8.7604   -11.0953     3.0351 C.3     
  38 O38           -4.7640   -13.0687     4.4787 O.2     
  39 C39           -5.6646   -15.4157     5.4516 C.3     
  40 C40           -6.6117   -16.2597     6.2650 C.2     
  41 C41           -4.7719   -16.3240     4.6037 C.3     
  42 C42           -5.6284   -17.0639     3.5742 C.3     
  43 C43           -3.7231   -15.4769     3.8802 C.3     
  44 N44           -6.1406   -17.0195     7.2736 N.am    
  45 O45           -7.7979   -16.2552     6.0121 O.2     
  46 C46           -7.0461   -17.9085     8.0057 C.3     
  47 C47           -6.2578   -19.0423     8.6092 C.2     
  48 C48           -7.7430   -17.1229     9.1183 C.3     
  49 C49           -6.6927   -16.4240     9.9840 C.3     
  50 C50           -8.6717   -16.0765     8.4991 C.3     
  51 C51           -9.4612   -15.3760     9.6068 C.3     
  52 N52           -6.8977   -20.1242     9.0954 N.am    
  53 O53           -5.0475   -18.9811     8.6574 O.2     
  54 C54           -6.1293   -21.2732     9.5806 C.3     
  55 C55           -5.7324   -21.0422    11.0159 C.2     
  56 C56           -6.9865   -22.5369     9.4855 C.3     
  57 N57           -5.0142   -21.9732    11.6747 N.am    
  58 O58           -6.0593   -20.0186    11.5782 O.2     
  59 C59           -7.2854   -22.8411     8.0161 C.3     
  60 C60           -5.9820   -23.1806     7.2903 C.3     
  61 C61           -8.2439   -24.0303     7.9262 C.3     
  62 H62           -6.9767     2.0689    -2.5396 H       
  63 H63           -5.2836     0.2199    -4.0490 H       
  64 H64           -5.9357    -2.2212    -3.0386 H       
  65 H65           -5.7300    -2.1191    -0.1214 H       
  66 H66           -5.2909    -4.6471     0.6165 H       
  67 H67           -6.3846    -6.5229    -1.3361 H       
  68 H68           -6.7593    -8.7866     0.0774 H       
  69 H69           -4.8679    -8.9403     2.2969 H       
  70 H70           -5.1658   -10.9951     3.5118 H       
  71 H71           -6.9353   -12.9902     2.3218 H       
  72 H72           -7.3314   -14.7719     4.3045 H       
  73 H73           -4.7571     2.4107    -4.4487 H       
  74 H74           -6.4818     2.5024    -4.8792 H       
  75 H75           -5.7736     3.7094    -3.7792 H       
  76 H76           -7.6174     0.6102    -4.7903 H       
  77 H77           -7.4087    -1.0505    -4.1847 H       
  78 H78           -8.2057     0.1740    -3.1680 H       
  79 H79           -3.4023    -1.7461    -0.7804 H       
  80 H80           -3.5694    -3.4018    -0.1487 H       
  81 H81           -3.7097    -2.6924    -3.1105 H       
  82 H82           -1.3947    -3.8162    -1.4689 H       
  83 H83           -1.4139    -3.6207    -3.2380 H       
  84 H84           -1.4659    -2.1876    -2.1837 H       
  85 H85           -4.8130    -4.7634    -2.7511 H       
  86 H86           -3.1539    -5.2319    -3.1938 H       
  87 H87           -3.6605    -5.2571    -1.4876 H       
  88 H88           -8.2698    -7.1733     0.1920 H       
  89 H89           -7.8817    -5.7678     1.2129 H       
  90 H90           -8.2624    -4.2599    -0.7184 H       
  91 H91           -8.6505    -5.6653    -1.7393 H       
  92 H92          -10.5432    -6.2314    -0.2406 H       
  93 H93          -10.1551    -4.8259     0.7804 H       
  94 H94          -10.5358    -3.3179    -1.1509 H       
  95 H95          -10.9239    -4.7234    -2.1718 H       
  96 H96          -12.9083    -3.6961    -1.2800 H       
  97 H97          -12.7305    -5.2130    -0.6217 H       
  98 H98           -3.4037    -9.1153     0.2942 H       
  99 H99           -3.8198   -11.8145     1.6533 H       
 100 H100          -2.3176   -11.2151     0.9101 H       
 101 H101          -2.9503   -10.4442     2.3845 H       
 102 H102          -3.8027   -10.9833    -1.1401 H       
 103 H103          -8.5580   -12.8996     4.1945 H       
 104 H104          -7.0874   -10.5339     5.0130 H       
 105 H105          -9.0178   -11.6250     2.1178 H       
 106 H106          -9.6731   -10.7829     3.5426 H       
 107 H107          -8.1613   -10.2178     2.7919 H       
 108 H108          -5.0447   -14.8183     6.1201 H       
 109 H109          -4.2729   -17.0474     5.2484 H       
 110 H110          -6.1275   -16.3405     2.9294 H       
 111 H111          -4.9924   -17.7110     2.9702 H       
 112 H112          -6.3756   -17.6674     4.0896 H       
 113 H113          -3.1356   -14.9228     4.6123 H       
 114 H114          -3.0654   -16.1274     3.3037 H       
 115 H115          -4.2212   -14.7770     3.2093 H       
 116 H116          -5.2020   -16.9777     7.5147 H       
 117 H117          -7.7935   -18.3096     7.3212 H       
 118 H118          -8.3260   -17.8065     9.7355 H       
 119 H119          -6.0688   -17.1721    10.4731 H       
 120 H120          -6.0704   -15.7862     9.3563 H       
 121 H121          -7.1905   -15.8160    10.7393 H       
 122 H122          -8.0790   -15.3413     7.9547 H       
 123 H123          -9.3636   -16.5653     7.8132 H       
 124 H124         -10.0538   -16.1111    10.1512 H       
 125 H125          -8.7692   -14.8872    10.2927 H       
 126 H126         -10.1228   -14.6305     9.1656 H       
 127 H127          -7.8672   -20.1420     9.1241 H       
 128 H128          -5.2338   -21.3949     8.9711 H       
 129 H129          -6.4483   -23.3752     9.9279 H       
 130 H130          -7.9226   -22.3822    10.0222 H       
 131 H131          -4.7528   -22.7919    11.2249 H       
 132 H132          -4.7588   -21.8245    12.5985 H       
 133 H133          -7.7440   -21.9688     7.5505 H       
 134 H134          -5.5234   -24.0530     7.7559 H       
 135 H135          -6.1949   -23.3974     6.2435 H       
 136 H136          -5.2992   -22.3335     7.3543 H       
 137 H137          -9.1724   -23.7884     8.4433 H       
 138 H138          -8.4568   -24.2470     6.8794 H       
 139 H139          -7.7853   -24.9026     8.3919 H       
 140 C140          23.5095    38.0283    24.8621 C.3     
 141 C141          23.5303    36.4985    24.8537 C.3     
 142 C142          22.0949    35.9689    24.8646 C.3     
 143 C143          22.1156    34.4391    24.8562 C.3     
 144 C144          20.6803    33.9095    24.8670 C.3     
 145 C145          20.7010    32.3797    24.8586 C.3     
 146 C146          19.2656    31.8501    24.8695 C.3     
 147 C147          19.2864    30.3202    24.8611 C.3     
 148 C148          17.8510    29.7907    24.8719 C.3     
 149 C149          17.8717    28.2608    24.8635 C.3     
 150 C150          16.4364    27.7312    24.8744 C.3     
 151 C151          16.4571    26.2014    24.8660 C.3     
 152 C152          15.0217    25.6718    24.8768 C.3     
 153 C153          15.0425    24.1420    24.8684 C.3     
 154 C154          13.6287    23.6204    24.8791 C.2     
 155 N155          13.4004    22.2921    24.8742 N.am    
 156 O156          12.6963    24.3959    24.8922 O.2     
 157 C157          12.0260    21.7850    24.8846 C.3     
 158 C158          11.9946    20.4063    24.2770 C.2     
 159 N159          10.8277    19.7388    24.1804 N.am    
 160 O160          13.0194    19.8974    23.8748 O.2     
 161 C161          10.7973    18.3985    23.5898 C.3     
 162 C162           9.6080    17.6417    24.1225 C.2     
 163 N163           9.3760    16.3779    23.7157 N.am    
 164 O164           8.8595    18.1699    24.9174 O.2     
 165 C165           8.2199    15.6422    24.2337 C.3     
 166 C166           7.8194    14.5763    23.2464 C.2     
 167 O167           8.4387    14.4443    22.2121 O.2     
 168 N168           6.7729    13.7699    23.5130 N.am    
 169 C169           6.3836    12.7337    22.5533 C.3     
 170 C170           5.4589    13.3397    21.4956 C.3     
 171 C171           5.6620    11.6254    23.2758 C.2     
 172 O172           5.4898    11.6943    24.4744 O.2     
 173 N173           5.2078    10.5577    22.5900 N.am    
 174 O174           4.2406    13.7605    22.1127 O.3     
 175 C175           4.5063     9.4803    23.2924 C.3     
 176 C176          11.5177    21.7187    26.3262 C.3     
 177 O177          12.2812    20.7566    27.0566 O.3     
 178 C178          24.9449    38.5579    24.8513 C.3     
 179 H179          14.1461    21.6719    24.8637 H       
 180 C180          10.6882    18.5141    22.0680 C.3     
 181 C181          11.9540    19.1717    21.5145 C.3     
 182 C182          11.8449    19.2873    19.9928 C.3     
 183 C183          13.1107    19.9449    19.4393 C.3     
 184 O184          13.0089    20.0529    18.0180 O.3     
 185 C185           8.5867    14.9895    25.5680 C.3     
 186 C186           8.8727    16.0767    26.6059 C.3     
 187 C187           7.5928    16.8686    26.8809 C.3     
 188 C188           9.3597    15.4278    27.9031 C.3     
 189 H189          22.9824    38.3894    23.9791 H       
 190 H190          22.9993    38.3799    25.7589 H       
 191 H191          24.0405    36.1470    23.9569 H       
 192 H192          24.0575    36.1374    25.7368 H       
 193 H193          21.5847    36.3204    25.7614 H       
 194 H194          21.5677    36.3300    23.9815 H       
 195 H195          22.6258    34.0876    23.9594 H       
 196 H196          22.6428    34.0780    25.7392 H       
 197 H197          20.1701    34.2610    25.7638 H       
 198 H198          20.1531    34.2706    23.9840 H       
 199 H199          21.2112    32.0281    23.9618 H       
 200 H200          21.2282    32.0186    25.7417 H       
 201 H201          18.7554    32.2016    25.7663 H       
 202 H202          18.7384    32.2112    23.9864 H       
 203 H203          19.7966    29.9687    23.9643 H       
 204 H204          19.8136    29.9592    25.7441 H       
 205 H205          17.3408    30.1422    25.7687 H       
 206 H206          17.3238    30.1517    23.9889 H       
 207 H207          18.3819    27.9093    23.9667 H       
 208 H208          18.3989    27.8997    25.7466 H       
 209 H209          15.9262    28.0828    25.7712 H       
 210 H210          15.9092    28.0923    23.9913 H       
 211 H211          16.9673    25.8499    23.9692 H       
 212 H212          16.9843    25.8403    25.7490 H       
 213 H213          14.5115    26.0234    25.7736 H       
 214 H214          14.4945    26.0329    23.9938 H       
 215 H215          15.5527    23.7905    23.9716 H       
 216 H216          15.5697    23.7809    25.7515 H       
 217 H217          11.3882    22.4522    24.3048 H       
 218 H218          10.0081    20.1458    24.5020 H       
 219 H219          11.7125    17.8663    23.8490 H       
 220 H220           9.9746    15.9554    23.0800 H       
 221 H221           7.3880    16.3306    24.3825 H       
 222 H222           6.2776    13.8755    24.3403 H       
 223 H223           7.2746    12.3327    22.0702 H       
 224 H224           5.9478    14.1978    21.0343 H       
 225 H225           5.2406    12.5924    20.7327 H       
 226 H226           5.3455    10.5027    21.6314 H       
 227 H227           3.6053    14.1554    21.5000 H       
 228 H228           5.1651     9.0486    24.0459 H       
 229 H229           3.6154     9.8814    23.7755 H       
 230 H230           4.2166     8.7094    22.5784 H       
 231 H231          11.6234    22.6975    26.7940 H       
 232 H232          10.4676    21.4266    26.3281 H       
 233 H233          12.0132    20.6615    27.9809 H       
 234 H234          25.4721    38.1968    25.7343 H       
 235 H235          25.4551    38.2064    23.9545 H       
 236 H236          24.9301    39.6478    24.8573 H       
 237 H237          10.5762    17.5201    21.6352 H       
 238 H238           9.8208    19.1222    21.8111 H       
 239 H239          12.0660    20.1658    21.9474 H       
 240 H240          12.8214    18.5637    21.7715 H       
 241 H241          11.7329    18.2933    19.5600 H       
 242 H242          10.9775    19.8954    19.7359 H       
 243 H243          13.2227    20.9390    19.8721 H       
 244 H244          13.9781    19.3369    19.6963 H       
 245 H245          13.7782    20.4617    17.5985 H       
 246 H246           7.7573    14.3702    25.9097 H       
 247 H247           9.4735    14.3694    25.4375 H       
 248 H248           9.6414    16.7492    26.2252 H       
 249 H249           7.7966    17.6431    27.6203 H       
 250 H250           7.2459    17.3308    25.9568 H       
 251 H251           6.8242    16.1960    27.2616 H       
 252 H252          10.2715    14.8637    27.7071 H       
 253 H253           9.5635    16.2023    28.6425 H       
 254 H254           8.5910    14.7553    28.2838 H       
 255 C255          35.1419    71.4046    36.6874 C.3     
 256 C256          35.1623    69.8978    36.6791 C.2     
 257 N257          35.7646    69.2265    37.6806 N.am    
 258 C258          35.7845    67.7616    37.6725 C.3     
 259 C259          35.9286    67.2534    39.0839 C.2     
 260 N260          35.9704    65.9275    39.3218 N.am    
 261 C261          36.1105    65.4335    40.6938 C.3     
 262 C262          36.7311    64.0604    40.6724 C.2     
 263 N263          36.9571    63.4049    41.8281 N.am    
 264 O264          37.0272    63.5451    39.6151 O.2     
 265 C265          37.5604    62.0700    41.8073 C.3     
 266 C266          37.7046    61.5618    43.2187 C.2     
 267 N267          38.2394    60.3457    43.4457 N.am    
 268 O268          37.3393    62.2472    44.1502 O.2     
 269 C269          38.3795    59.8517    44.8178 C.3     
 270 C270          39.4930    58.8379    44.8754 C.2     
 271 N271          39.8045    58.2447    46.0448 N.am    
 272 O272          40.1089    58.5558    43.8694 O.2     
 273 C273          40.8869    57.2591    46.1008 C.3     
 274 C274          40.6593    56.3285    47.2640 C.2     
 275 O275          39.6884    56.4741    47.9762 O.2     
 276 N276          41.5346    55.3343    47.5130 N.am    
 277 C277          41.3133    54.4296    48.6438 C.3     
 278 C278          41.8865    55.0550    49.9171 C.3     
 279 C279          41.9996    53.1148    48.3770 C.2     
 280 O280          42.6133    52.9497    47.3440 O.2     
 281 N281          41.9316    52.1223    49.2864 N.am    
 282 C282          42.5988    50.8442    49.0270 C.3     
 283 C283          44.0646    50.9379    49.4555 C.3     
 284 C284          41.9154    49.7528    49.8098 C.2     
 285 O285          40.9646    50.0166    50.5150 O.2     
 286 N286          42.3608    48.4835    49.7263 N.am    
 287 C287          41.6964    47.4225    50.4874 C.3     
 288 C288          42.6823    46.2792    50.7358 C.3     
 289 C289          40.5160    46.9069    49.7051 C.2     
 290 O290          40.4537    47.0927    48.5135 O.2     
 291 C291          39.4134    46.1595    50.4099 C.3     
 292 C292          43.8182    46.7715    51.6348 C.3     
 293 C293          44.8041    45.6282    51.8832 C.3     
 294 C294          45.9401    46.1205    52.7821 C.3     
 295 N295          46.8866    45.0228    53.0207 N.3     
 296 C296          37.0697    59.1963    45.2601 C.3     
 297 C297          35.9822    60.2378    45.3205 C.2     
 298 C298          42.2245    57.9803    46.2788 C.3     
 299 C299          42.5146    58.8301    45.0400 C.3     
 300 C300          43.8321    59.5404    45.2154 C.2     
 301 C301          41.1058    56.3262    50.2569 C.3     
 302 C302          41.6790    56.9516    51.5302 C.3     
 303 C303          40.8984    58.2228    51.8701 C.3     
 304 N304          41.4487    58.8233    53.0926 N.3     
 305 C305          44.7890    51.9585    48.5755 C.3     
 306 C306          46.2548    52.0522    49.0040 C.3     
 307 N307          46.9484    53.0295    48.1613 N.pl3   
 308 C308          34.7316    65.3597    41.3526 C.3     
 309 O309          36.0070    68.0376    40.0058 O.2     
 310 C310          36.9650    67.2722    36.8312 C.3     
 311 O311          38.1894    67.6635    37.4554 O.3     
 312 O312          34.6368    69.2892    35.7712 O.2     
 313 C313          36.5773    71.9342    36.6765 C.3     
 314 C314          34.4019    71.9114    35.4478 C.3     
 315 C315          34.2740    73.4114    35.5175 C.2     
 316 N316          33.7334    74.1103    36.5266 N.2     
 317 C317          48.2844    53.2846    48.3617 C.2     
 318 N318          48.9353    54.2017    47.5709 N.pl3   
 319 N319          48.9339    52.6569    49.3014 N.2     
 320 N320          44.2951    60.3512    44.2434 N.am    
 321 O321          44.4757    59.3825    46.2311 O.2     
 322 C322          34.7976    60.1830    44.6822 C.2     
 323 N323          34.1174    61.3244    45.0111 N.pl3   
 324 C324          34.9105    62.0374    45.8395 C.2     
 325 N325          36.0220    61.3791    46.0240 N.2     
 326 C326          34.1546    66.7703    41.4873 C.3     
 327 C327          32.7756    66.6965    42.1461 C.3     
 328 C328          32.1986    68.1071    42.2807 C.3     
 329 N329          30.8747    68.0362    42.9133 N.3     
 330 C330          33.7913    75.3838    36.2476 C.2     
 331 N331          34.3764    75.5364    35.0401 N.pl3   
 332 C332          34.6876    74.2853    34.5800 C.2     
 333 H333          34.6317    71.7561    37.5842 H       
 334 H334          36.1849    69.7132    38.4067 H       
 335 H335          34.8540    67.3880    37.2451 H       
 336 H336          35.9077    65.3003    38.5845 H       
 337 H337          36.7483    66.1116    41.2608 H       
 338 H338          36.7203    63.8169    42.6737 H       
 339 H339          36.9227    61.3919    41.2403 H       
 340 H340          38.5428    62.1226    41.3380 H       
 341 H341          38.5315    59.7976    42.7007 H       
 342 H342          38.6115    60.6843    45.4818 H       
 343 H343          39.3119    58.4703    46.8494 H       
 344 H344          40.9041    56.6852    45.1743 H       
 345 H345          42.3111    55.2178    46.9434 H       
 346 H346          40.2438    54.2619    48.7710 H       
 347 H347          41.8017    54.3456    50.7403 H       
 348 H348          42.9357    55.3043    49.7588 H       
 349 H349          41.4408    52.2544    50.1126 H       
 350 H350          42.5454    50.6158    47.9625 H       
 351 H351          44.1191    51.2530    50.4975 H       
 352 H352          44.5383    49.9623    49.3457 H       
 353 H353          43.1213    48.2724    49.1624 H       
 354 H354          41.3535    47.8206    51.4424 H       
 355 H355          42.1650    45.4529    51.2236 H       
 356 H356          43.0926    45.9401    49.7846 H       
 357 H357          38.6523    46.8647    50.7437 H       
 358 H358          38.9663    45.4399    49.7241 H       
 359 H359          39.8243    45.6334    51.2716 H       
 360 H360          44.3355    47.5977    51.1470 H       
 361 H361          43.4079    47.1106    52.5859 H       
 362 H362          44.2869    44.8019    52.3710 H       
 363 H363          45.2144    45.2891    50.9320 H       
 364 H364          46.4573    46.9467    52.2944 H       
 365 H365          45.5297    46.4596    53.7333 H       
 366 H366          47.2323    44.6478    52.1501 H       
 367 H367          47.6468    45.3229    53.6124 H       
 368 H368          36.7916    58.4216    44.5455 H       
 369 H369          37.2012    58.7507    46.2461 H       
 370 H370          42.1764    58.6234    47.1575 H       
 371 H371          43.0189    57.2454    46.4094 H       
 372 H372          42.5627    58.1869    44.1613 H       
 373 H373          41.7202    59.5649    44.9094 H       
 374 H374          41.1905    57.0356    49.4337 H       
 375 H375          40.0566    56.0769    50.4152 H       
 376 H376          41.5943    56.2422    52.3534 H       
 377 H377          42.7283    57.2010    51.3720 H       
 378 H378          40.9831    58.9322    51.0469 H       
 379 H379          39.8491    57.9735    52.0283 H       
 380 H380          40.9497    59.6651    53.3383 H       
 381 H381          41.4408    58.1626    53.8551 H       
 382 H382          44.7345    51.6434    47.5334 H       
 383 H383          44.3153    52.9340    48.6853 H       
 384 H384          46.3093    52.3673    50.0460 H       
 385 H385          46.7285    51.0767    48.8942 H       
 386 H386          46.4650    53.4966    47.4620 H       
 387 H387          34.0672    64.7525    40.7378 H       
 388 H388          34.8247    64.9093    42.3409 H       
 389 H389          36.9287    66.1857    36.7516 H       
 390 H390          36.9082    67.7116    35.8353 H       
 391 H391          38.9818    67.3859    36.9756 H       
 392 H392          36.5625    73.0241    36.6825 H       
 393 H393          37.1044    71.5731    37.5596 H       
 394 H394          37.0874    71.5827    35.7797 H       
 395 H395          34.9602    71.6356    34.5532 H       
 396 H396          33.4089    71.4635    35.4090 H       
 397 H397          48.4520    54.6688    46.8716 H       
 398 H398          49.8779    54.3817    47.7123 H       
 399 H399          49.8765    52.8369    49.4428 H       
 400 H400          43.7804    60.4775    43.4310 H       
 401 H401          45.1431    60.8084    44.3563 H       
 402 H402          34.4511    59.3909    44.0349 H       
 403 H403          33.2311    61.5743    44.7061 H       
 404 H404          34.6640    62.9923    46.2796 H       
 405 H405          34.8190    67.3774    42.1021 H       
 406 H406          34.0614    67.2206    40.4990 H       
 407 H407          32.1112    66.0893    41.5312 H       
 408 H408          32.8687    66.2461    43.1343 H       
 409 H409          32.8630    68.7142    42.8956 H       
 410 H410          32.1055    68.5574    41.2925 H       
 411 H411          30.9241    67.5642    43.8037 H       
 412 H412          30.4721    68.9560    43.0135 H       
 413 H413          33.4306    76.1833    36.8778 H       
 414 H414          34.5474    76.3759    34.5853 H       
 415 H415          35.1668    74.0448    33.6425 H       
@<TRIPOS>BOND
   1    1    2 1
   2    1   17 1
   3    1   62 1
   4    2    3 1
   5    2   18 1
   6    2   63 1
   7    3    4 am
   8    3   19 2
   9    4    5 1
  10    4   64 1
  11    5    6 1
  12    5   20 1
  13    5   65 1
  14    6    7 am
  15    6   24 2
  16    7    8 1
  17    7   66 1
  18    8    9 1
  19    8   25 1
  20    8   67 1
  21    9   10 am
  22    9   30 2
  23   10   11 1
  24   10   68 1
  25   11   12 1
  26   11   31 1
  27   11   69 1
  28   12   13 am
  29   12   34 2
  30   13   14 1
  31   13   70 1
  32   14   15 1
  33   14   35 1
  34   14   71 1
  35   15   16 am
  36   15   38 2
  37   16   39 1
  38   16   72 1
  39   17   73 1
  40   17   74 1
  41   17   75 1
  42   18   76 1
  43   18   77 1
  44   18   78 1
  45   20   21 1
  46   20   79 1
  47   20   80 1
  48   21   22 1
  49   21   23 1
  50   21   81 1
  51   22   82 1
  52   22   83 1
  53   22   84 1
  54   23   85 1
  55   23   86 1
  56   23   87 1
  57   25   26 1
  58   25   88 1
  59   25   89 1
  60   26   27 1
  61   26   90 1
  62   26   91 1
  63   27   28 1
  64   27   92 1
  65   27   93 1
  66   28   29 1
  67   28   94 1
  68   28   95 1
  69   29   96 1
  70   29   97 1
  71   31   32 1
  72   31   33 1
  73   31   98 1
  74   32   99 1
  75   32  100 1
  76   32  101 1
  77   33  102 1
  78   35   36 1
  79   35   37 1
  80   35  103 1
  81   36  104 1
  82   37  105 1
  83   37  106 1
  84   37  107 1
  85   39   40 1
  86   39   41 1
  87   39  108 1
  88   40   44 am
  89   40   45 2
  90   41   42 1
  91   41   43 1
  92   41  109 1
  93   42  110 1
  94   42  111 1
  95   42  112 1
  96   43  113 1
  97   43  114 1
  98   43  115 1
  99   44   46 1
 100   44  116 1
 101   46   47 1
 102   46   48 1
 103   46  117 1
 104   47   52 am
 105   47   53 2
 106   48   49 1
 107   48   50 1
 108   48  118 1
 109   49  119 1
 110   49  120 1
 111   49  121 1
 112   50   51 1
 113   50  122 1
 114   50  123 1
 115   51  124 1
 116   51  125 1
 117   51  126 1
 118   52   54 1
 119   52  127 1
 120   54   55 1
 121   54   56 1
 122   54  128 1
 123   55   57 am
 124   55   58 2
 125   56   59 1
 126   56  129 1
 127   56  130 1
 128   57  131 1
 129   57  132 1
 130   59   60 1
 131   59   61 1
 132   59  133 1
 133   60  134 1
 134   60  135 1
 135   60  136 1
 136   61  137 1
 137   61  138 1
 138   61  139 1
 139  140  141 1
 140  140  178 1
 141  140  189 1
 142  140  190 1
 143  141  142 1
 144  141  191 1
 145  141  192 1
 146  142  143 1
 147  142  193 1
 148  142  194 1
 149  143  144 1
 150  143  195 1
 151  143  196 1
 152  144  145 1
 153  144  197 1
 154  144  198 1
 155  145  146 1
 156  145  199 1
 157  145  200 1
 158  146  147 1
 159  146  201 1
 160  146  202 1
 161  147  148 1
 162  147  203 1
 163  147  204 1
 164  148  149 1
 165  148  205 1
 166  148  206 1
 167  149  150 1
 168  149  207 1
 169  149  208 1
 170  150  151 1
 171  150  209 1
 172  150  210 1
 173  151  152 1
 174  151  211 1
 175  151  212 1
 176  152  153 1
 177  152  213 1
 178  152  214 1
 179  153  154 1
 180  153  215 1
 181  153  216 1
 182  154  155 am
 183  154  156 2
 184  155  157 1
 185  155  179 1
 186  157  158 1
 187  157  176 1
 188  157  217 1
 189  158  159 am
 190  158  160 2
 191  159  161 1
 192  159  218 1
 193  161  162 1
 194  161  180 1
 195  161  219 1
 196  162  163 am
 197  162  164 2
 198  163  165 1
 199  163  220 1
 200  165  166 1
 201  165  185 1
 202  165  221 1
 203  166  167 2
 204  166  168 am
 205  168  169 1
 206  168  222 1
 207  169  170 1
 208  169  171 1
 209  169  223 1
 210  170  174 1
 211  170  224 1
 212  170  225 1
 213  171  172 2
 214  171  173 am
 215  173  175 1
 216  173  226 1
 217  174  227 1
 218  175  228 1
 219  175  229 1
 220  175  230 1
 221  176  177 1
 222  176  231 1
 223  176  232 1
 224  177  233 1
 225  178  234 1
 226  178  235 1
 227  178  236 1
 228  180  181 1
 229  180  237 1
 230  180  238 1
 231  181  182 1
 232  181  239 1
 233  181  240 1
 234  182  183 1
 235  182  241 1
 236  182  242 1
 237  183  184 1
 238  183  243 1
 239  183  244 1
 240  184  245 1
 241  185  186 1
 242  185  246 1
 243  185  247 1
 244  186  187 1
 245  186  188 1
 246  186  248 1
 247  187  249 1
 248  187  250 1
 249  187  251 1
 250  188  252 1
 251  188  253 1
 252  188  254 1
 253  255  256 1
 254  255  313 1
 255  255  314 1
 256  255  333 1
 257  256  257 am
 258  256  312 2
 259  257  258 1
 260  257  334 1
 261  258  259 1
 262  258  310 1
 263  258  335 1
 264  259  260 am
 265  259  309 2
 266  260  261 1
 267  260  336 1
 268  261  262 1
 269  261  308 1
 270  261  337 1
 271  262  263 am
 272  262  264 2
 273  263  265 1
 274  263  338 1
 275  265  266 1
 276  265  339 1
 277  265  340 1
 278  266  267 am
 279  266  268 2
 280  267  269 1
 281  267  341 1
 282  269  270 1
 283  269  296 1
 284  269  342 1
 285  270  271 am
 286  270  272 2
 287  271  273 1
 288  271  343 1
 289  273  274 1
 290  273  298 1
 291  273  344 1
 292  274  275 2
 293  274  276 am
 294  276  277 1
 295  276  345 1
 296  277  278 1
 297  277  279 1
 298  277  346 1
 299  278  301 1
 300  278  347 1
 301  278  348 1
 302  279  280 2
 303  279  281 am
 304  281  282 1
 305  281  349 1
 306  282  283 1
 307  282  284 1
 308  282  350 1
 309  283  305 1
 310  283  351 1
 311  283  352 1
 312  284  285 2
 313  284  286 am
 314  286  287 1
 315  286  353 1
 316  287  288 1
 317  287  289 1
 318  287  354 1
 319  288  292 1
 320  288  355 1
 321  288  356 1
 322  289  290 2
 323  289  291 1
 324  291  357 1
 325  291  358 1
 326  291  359 1
 327  292  293 1
 328  292  360 1
 329  292  361 1
 330  293  294 1
 331  293  362 1
 332  293  363 1
 333  294  295 1
 334  294  364 1
 335  294  365 1
 336  295  366 1
 337  295  367 1
 338  296  297 1
 339  296  368 1
 340  296  369 1
 341  297  322 2
 342  297  325 1
 343  298  299 1
 344  298  370 1
 345  298  371 1
 346  299  300 1
 347  299  372 1
 348  299  373 1
 349  300  320 am
 350  300  321 2
 351  301  302 1
 352  301  374 1
 353  301  375 1
 354  302  303 1
 355  302  376 1
 356  302  377 1
 357  303  304 1
 358  303  378 1
 359  303  379 1
 360  304  380 1
 361  304  381 1
 362  305  306 1
 363  305  382 1
 364  305  383 1
 365  306  307 1
 366  306  384 1
 367  306  385 1
 368  307  317 1
 369  307  386 1
 370  308  326 1
 371  308  387 1
 372  308  388 1
 373  310  311 1
 374  310  389 1
 375  310  390 1
 376  311  391 1
 377  313  392 1
 378  313  393 1
 379  313  394 1
 380  314  315 1
 381  314  395 1
 382  314  396 1
 383  315  316 1
 384  315  332 2
 385  316  330 2
 386  317  318 1
 387  317  319 2
 388  318  397 1
 389  318  398 1
 390  319  399 1
 391  320  400 1
 392  320  401 1
 393  322  323 1
 394  322  402 1
 395  323  324 1
 396  323  403 1
 397  324  325 2
 398  324  404 1
 399  326  327 1
 400  326  405 1
 401  326  406 1
 402  327  328 1
 403  327  407 1
 404  327  408 1
 405  328  329 1
 406  328  409 1
 407  328  410 1
 408  329  411 1
 409  329  412 1
 410  330  331 1
 411  330  413 1
 412  331  332 1
 413  331  414 1
 414  332  415 1

#	End of record

