#	Name: ASD01880400
#	Creating user name:	WinNT
#	Creation time:	15. 06. 2019 19:40

#	Modifying user name:	WinNT
#	Modification time:	15. 06. 2019 19:40

#	Program:	/corina/corina34_cracker 3.40 0067  02.08.2006

@<TRIPOS>MOLECULE
ASD01880400
  49   50    0    0    0
SMALL
NO_CHARGES


@<TRIPOS>ATOM
   1 C1            -0.0159     1.3213     0.0093 C.ar    
   2 N2             0.0021    -0.0041     0.0020 N.ar    
   3 C3            -1.1220    -0.7042     0.0094 C.ar    
   4 C4            -2.3622    -0.0155     0.0254 C.ar    
   5 C5            -2.3279     1.3811     0.0326 C.ar    
   6 N6            -1.1425     2.0049     0.0292 N.ar    
   7 C7            -3.7211    -0.5257     0.0354 C.2     
   8 C8            -4.6595     0.4001     0.0491 C.2     
   9 S9            -3.9684     2.0116     0.0513 S.3     
  10 C10           -6.1383     0.1102     0.0614 C.3     
  11 C11           -6.6253     0.0044     1.5080 C.3     
  12 C12           -8.1267    -0.2899     1.5204 C.3     
  13 N13           -1.0874    -2.0867     0.0012 N.pl3   
  14 C14            0.1992    -2.7872    -0.0158 C.3     
  15 C15           -0.0427    -4.2979    -0.0220 C.3     
  16 C16            1.2943    -5.0279    -0.1654 C.3     
  17 C17            1.0467    -6.5088    -0.2948 C.2     
  18 C18           -1.8792    -5.2806     1.2519 C.2     
  19 C19           -0.7019    -4.7064     1.2702 C.2     
  20 O20            1.1603     1.9940     0.0017 O.3     
  21 C21            1.0914     3.4213     0.0100 C.3     
  22 C22            1.5323    -7.1700    -1.3252 C.2     
  23 O23            1.3094    -8.5032    -1.4417 O.3     
  24 C24            1.8656    -9.1564    -2.5845 C.3     
  25 H25           -3.9460    -1.5820     0.0315 H       
  26 H26           -6.6708     0.9164    -0.4432 H       
  27 H27           -6.3285    -0.8303    -0.4557 H       
  28 H28           -6.0928    -0.8019     2.0125 H       
  29 H29           -6.4351     0.9448     2.0251 H       
  30 H30           -8.4736    -0.3654     2.5510 H       
  31 H31           -8.6592     0.5163     1.0159 H       
  32 H32           -8.3169    -1.2304     1.0033 H       
  33 H33           -1.9150    -2.5926     0.0067 H       
  34 H34            0.7549    -2.5046    -0.9099 H       
  35 H35            0.7730    -2.5147     0.8700 H       
  36 H36           -0.6906    -4.5588    -0.8587 H       
  37 H37            1.8118    -4.6670    -1.0542 H       
  38 H38            1.9083    -4.8377     0.7149 H       
  39 H39            0.4712    -7.0278     0.4573 H       
  40 H40           -2.3774    -5.4612     0.3109 H       
  41 H41           -2.3517    -5.5733     2.1779 H       
  42 H42           -0.2038    -4.5257     2.2112 H       
  43 H43            2.1003     3.8338     0.0026 H       
  44 H44            0.5522     3.7642    -0.8730 H       
  45 H45            0.5692     3.7547     0.9068 H       
  46 H46            2.1078    -6.6509    -2.0774 H       
  47 H47            2.9493    -9.0401    -2.5779 H       
  48 H48            1.6137   -10.2165    -2.5554 H       
  49 H49            1.4579    -8.7109    -3.4919 H       
@<TRIPOS>BOND
   1    1    2 ar
   2    1   20 1
   3    1    6 ar
   4    2    3 ar
   5    3    4 ar
   6    3   13 1
   7    4    5 ar
   8    4    7 1
   9    5    6 ar
  10    5    9 1
  11    7    8 2
  12    7   25 1
  13    8    9 1
  14    8   10 1
  15   10   11 1
  16   10   26 1
  17   10   27 1
  18   11   12 1
  19   11   28 1
  20   11   29 1
  21   12   30 1
  22   12   31 1
  23   12   32 1
  24   13   14 1
  25   13   33 1
  26   14   15 1
  27   14   34 1
  28   14   35 1
  29   15   16 1
  30   15   19 1
  31   15   36 1
  32   16   17 1
  33   16   37 1
  34   16   38 1
  35   17   22 2
  36   17   39 1
  37   18   19 2
  38   18   40 1
  39   18   41 1
  40   19   42 1
  41   20   21 1
  42   21   43 1
  43   21   44 1
  44   21   45 1
  45   22   23 1
  46   22   46 1
  47   23   24 1
  48   24   47 1
  49   24   48 1
  50   24   49 1

#	End of record

