#	Name: ASD03092797
#	Creating user name:	WinNT
#	Creation time:	15. 06. 2019 20:33

#	Modifying user name:	WinNT
#	Modification time:	15. 06. 2019 20:33

#	Program:	/corina/corina34_cracker 3.40 0067  02.08.2006

@<TRIPOS>MOLECULE
ASD03092797
  50   52    0    0    0
SMALL
NO_CHARGES


@<TRIPOS>ATOM
   1 C1             0.0171     1.5116     0.0161 C.3     
   2 C2             0.0249    -0.0177    -0.0294 C.3     
   3 C3            -1.3902    -0.5298     0.0498 C.2     
   4 O4            -2.3160     0.2531     0.1346 O.2     
   5 C5            -1.6394    -1.9130     0.0257 C.2     
   6 S6            -0.4084    -3.1632    -0.0855 S.3     
   7 C7            -1.6288    -4.4273    -0.0466 C.2     
   8 C8            -2.8719    -3.8756     0.0455 C.2     
   9 C9            -4.1275    -4.7074     0.0990 C.3     
  10 C10           -2.8911    -2.4997     0.0919 C.2     
  11 C11           -4.1431    -1.7153     0.1985 C.ar    
  12 C12           -4.9293    -1.8041     1.3472 C.ar    
  13 C13           -6.0945    -1.0709     1.4405 C.ar    
  14 C14           -6.4836    -0.2495     0.3976 C.ar    
  15 C15           -5.7080    -0.1572    -0.7443 C.ar    
  16 C16           -4.5375    -0.8806    -0.8470 C.ar    
  17 S17           -7.9735     0.6827     0.5239 S.o2    
  18 N18           -7.5829     2.1415     1.2034 N.am    
  19 O19           -8.3885     0.9582    -0.8069 O.2     
  20 O20           -8.7913     0.0061     1.4687 O.2     
  21 C21           -1.3484    -5.8758    -0.1055 C.ar    
  22 C22           -0.4709    -6.3804    -1.0685 C.ar    
  23 C23           -0.2111    -7.7320    -1.1205 C.ar    
  24 C24           -0.8214    -8.5945    -0.2156 C.ar    
  25 N25           -0.5560    -9.9619    -0.2707 N.pl3   
  26 C26           -1.1979   -10.8716     0.6815 C.3     
  27 C27           -1.6957    -8.0953     0.7444 C.ar    
  28 C28           -1.9556    -6.7441     0.8052 C.ar    
  29 H29            1.0406     1.8821    -0.0413 H       
  30 H30           -0.5566     1.8973    -0.8266 H       
  31 H31           -0.4382     1.8450     0.9486 H       
  32 H32            0.4803    -0.3511    -0.9620 H       
  33 H33            0.5987    -0.4033     0.8133 H       
  34 H34           -4.3384    -4.9809     1.1328 H       
  35 H35           -4.9618    -4.1320    -0.3022 H       
  36 H36           -3.9903    -5.6109    -0.4951 H       
  37 H37           -4.6269    -2.4456     2.1617 H       
  38 H38           -6.7041    -1.1388     2.3294 H       
  39 H39           -6.0172     0.4855    -1.5553 H       
  40 H40           -3.9306    -0.8044    -1.7370 H       
  41 H41           -6.6635     2.3328     1.4462 H       
  42 H42           -8.2736     2.8047     1.3586 H       
  43 H43            0.0030    -5.7114    -1.7715 H       
  44 H44            0.4669    -8.1227    -1.8648 H       
  45 H45            0.0537   -10.3111    -0.9394 H       
  46 H46           -2.2804   -10.8089     0.5707 H       
  47 H47           -0.8712   -11.8928     0.4852 H       
  48 H48           -0.9197   -10.5901     1.6971 H       
  49 H49           -2.1680    -8.7675     1.4455 H       
  50 H50           -2.6313    -6.3566     1.5533 H       
@<TRIPOS>BOND
   1    1    2 1
   2    1   29 1
   3    1   30 1
   4    1   31 1
   5    2    3 1
   6    2   32 1
   7    2   33 1
   8    3    4 2
   9    3    5 1
  10    5   10 2
  11    5    6 1
  12    6    7 1
  13    7    8 2
  14    7   21 1
  15    8    9 1
  16    8   10 1
  17    9   34 1
  18    9   35 1
  19    9   36 1
  20   10   11 1
  21   11   16 ar
  22   11   12 ar
  23   12   13 ar
  24   12   37 1
  25   13   14 ar
  26   13   38 1
  27   14   15 ar
  28   14   17 1
  29   15   16 ar
  30   15   39 1
  31   16   40 1
  32   17   18 am
  33   17   19 2
  34   17   20 2
  35   18   41 1
  36   18   42 1
  37   21   28 ar
  38   21   22 ar
  39   22   23 ar
  40   22   43 1
  41   23   24 ar
  42   23   44 1
  43   24   25 1
  44   24   27 ar
  45   25   26 1
  46   25   45 1
  47   26   46 1
  48   26   47 1
  49   26   48 1
  50   27   28 ar
  51   27   49 1
  52   28   50 1

#	End of record

