#	Name: ASD01911096
#	Creating user name:	WinNT
#	Creation time:	15. 06. 2019 19:57

#	Modifying user name:	WinNT
#	Modification time:	15. 06. 2019 19:57

#	Program:	/corina/corina34_cracker 3.40 0067  02.08.2006

@<TRIPOS>MOLECULE
ASD01911096
  44   47    0    0    0
SMALL
NO_CHARGES


@<TRIPOS>ATOM
   1 O1             0.0143     1.4341    -0.3962 O.3     
   2 C2             0.0515     0.0790    -0.4351 C.2     
   3 N3            -1.0064    -0.7531    -0.3437 N.2     
   4 C4            -0.5109    -1.9636    -0.4282 C.2     
   5 O5             0.8123    -1.8362    -0.5663 O.3     
   6 N6             1.1164    -0.6620    -0.5735 N.2     
   7 C7            -1.2864    -3.2547    -0.3785 C.3     
   8 C8            -1.0688    -4.0317    -1.6790 C.3     
   9 C9            -1.8820    -5.3277    -1.6431 C.3     
  10 C10           -1.4015    -6.1951    -0.4754 C.3     
  11 N11           -1.4713    -5.4045     0.7610 N.am    
  12 C12           -0.7992    -4.0987     0.8035 C.3     
  13 C13           -2.1391    -5.8684     1.8359 C.2     
  14 O14           -2.1184    -5.2457     2.8794 O.2     
  15 C15           -2.8977    -7.1360     1.7454 C.ar    
  16 C16           -2.2480    -8.3452     1.4778 C.ar    
  17 C17           -2.9944    -9.5046     1.4025 C.ar    
  18 N18           -4.3007    -9.4833     1.5787 N.ar    
  19 C19           -4.9547    -8.3682     1.8328 C.ar    
  20 C20           -4.2859    -7.1594     1.9313 C.ar    
  21 C21            1.1964     2.1046    -0.3818 C.ar    
  22 C22            2.3883     1.4089    -0.2393 C.ar    
  23 C23            3.5884     2.0928    -0.2249 C.ar    
  24 C24            3.6024     3.4696    -0.3519 C.ar    
  25 C25            2.4160     4.1653    -0.4936 C.ar    
  26 C26            1.2136     3.4855    -0.5152 C.ar    
  27 F27           -4.9629    -6.0197     2.1921 F       
  28 H28           -2.3477    -3.0373    -0.2579 H       
  29 H29           -1.3920    -3.4234    -2.5238 H       
  30 H30           -0.0106    -4.2698    -1.7870 H       
  31 H31           -2.9377    -5.0912    -1.5103 H       
  32 H32           -1.7450    -5.8692    -2.5791 H       
  33 H33           -2.0416    -7.0727    -0.3846 H       
  34 H34           -0.3723    -6.5076    -0.6517 H       
  35 H35            0.2792    -4.2403     0.7314 H       
  36 H36           -1.0418    -3.5931     1.7381 H       
  37 H37           -1.1783    -8.3719     1.3318 H       
  38 H38           -2.5007   -10.4426     1.1959 H       
  39 H39           -6.0256    -8.3976     1.9698 H       
  40 H40            2.3778     0.3336    -0.1393 H       
  41 H41            4.5165     1.5517    -0.1140 H       
  42 H42            4.5417     4.0025    -0.3401 H       
  43 H43            2.4296     5.2407    -0.5922 H       
  44 H44            0.2871     4.0294    -0.6259 H       
@<TRIPOS>BOND
   1    1    2 1
   2    1   21 1
   3    2    3 1
   4    2    6 2
   5    3    4 2
   6    4    5 1
   7    4    7 1
   8    5    6 1
   9    7    8 1
  10    7   12 1
  11    7   28 1
  12    8    9 1
  13    8   29 1
  14    8   30 1
  15    9   10 1
  16    9   31 1
  17    9   32 1
  18   10   11 1
  19   10   33 1
  20   10   34 1
  21   11   12 1
  22   11   13 am
  23   12   35 1
  24   12   36 1
  25   13   14 2
  26   13   15 1
  27   15   16 ar
  28   15   20 ar
  29   16   17 ar
  30   16   37 1
  31   17   18 ar
  32   17   38 1
  33   18   19 ar
  34   19   20 ar
  35   19   39 1
  36   20   27 1
  37   21   22 ar
  38   21   26 ar
  39   22   23 ar
  40   22   40 1
  41   23   24 ar
  42   23   41 1
  43   24   25 ar
  44   24   42 1
  45   25   26 ar
  46   25   43 1
  47   26   44 1

#	End of record

