#	Name: ASD03490057
#	Creating user name:	WinNT
#	Creation time:	15. 06. 2019 20:42

#	Modifying user name:	WinNT
#	Modification time:	15. 06. 2019 20:42

#	Program:	/corina/corina34_cracker 3.40 0067  02.08.2006

@<TRIPOS>MOLECULE
ASD03490057
  52   52    0    0    0
SMALL
NO_CHARGES


@<TRIPOS>ATOM
   1 O1            -0.5642     1.7470     0.8299 O.3     
   2 C2            -0.3447     0.4229     0.8096 C.2     
   3 C3            -1.4829    -0.5254     0.5335 C.3     
   4 O4             0.7654    -0.0086     1.0127 O.2     
   5 O5            -1.0274    -1.8720     0.6797 O.3     
   6 C6            -2.6198    -0.2607     1.5241 C.3     
   7 O7            -1.9576    -0.3249    -0.7994 O.3     
   8 C8            -3.0261    -1.1961    -1.1754 C.3     
   9 C9            -4.2251    -0.9581    -0.2537 C.3     
  10 C10           -3.7958    -1.1868     1.1991 C.3     
  11 C11           -3.4311    -0.9115    -2.6231 C.3     
  12 C12           -2.2876    -1.3068    -3.5597 C.3     
  13 C13           -2.7374    -1.1397    -5.0125 C.3     
  14 O14           -1.7129    -1.6181    -5.8863 O.3     
  15 O15           -1.1572    -0.4686    -3.3115 O.3     
  16 C16           -4.7206     0.4798    -0.4202 C.3     
  17 O17           -5.7647     0.7359     0.5211 O.3     
  18 O18           -3.3943    -2.5475     1.3703 O.3     
  19 S19           -2.0550    -1.4997    -7.3646 S.o2    
  20 O20           -1.0458    -2.2559    -8.0195 O.2     
  21 O21           -3.4216    -1.8818    -7.4398 O.2     
  22 N22           -5.2328     0.6654    -1.7802 N.am    
  23 O23           -4.3317     2.6882    -1.9162 O.2     
  24 C24           -4.9817     1.8110    -2.4444 C.2     
  25 C25           -5.5086     2.0019    -3.8433 C.3     
  26 C26           -2.1872     0.5171    -9.2077 C.3     
  27 C27           -1.8667     0.2666    -7.7327 C.3     
  28 H28            0.1967     2.3154     1.0113 H       
  29 H29           -0.3060    -2.1103     0.0814 H       
  30 H30           -2.2719    -0.4559     2.5385 H       
  31 H31           -2.9404     0.7778     1.4415 H       
  32 H32           -2.6991    -2.2320    -1.0862 H       
  33 H33           -5.0254    -1.6522    -0.5105 H       
  34 H34           -4.6296    -0.9647     1.8650 H       
  35 H35           -4.3209    -1.4898    -2.8719 H       
  36 H36           -3.6444     0.1512    -2.7385 H       
  37 H37           -2.0148    -2.3469    -3.3811 H       
  38 H38           -3.6514    -1.7100    -5.1778 H       
  39 H39           -2.9252    -0.0854    -5.2157 H       
  40 H40           -1.3277     0.4730    -3.4509 H       
  41 H41           -3.8960     1.1708    -0.2451 H       
  42 H42           -6.5628     0.2093     0.3763 H       
  43 H43           -3.1091    -2.7634     2.2688 H       
  44 H44           -5.7526    -0.0362    -2.2026 H       
  45 H45           -6.4978     2.4576    -3.7999 H       
  46 H46           -4.8334     2.6514    -4.4003 H       
  47 H47           -5.5757     1.0347    -4.3414 H       
  48 H48           -3.2126     0.2103    -9.4139 H       
  49 H49           -2.0740     1.5784    -9.4288 H       
  50 H50           -1.5032    -0.0589    -9.8310 H       
  51 H51           -2.5506     0.8425    -7.1094 H       
  52 H52           -0.8413     0.5734    -7.5265 H       
@<TRIPOS>BOND
   1    1    2 1
   2    1   28 1
   3    2    3 1
   4    2    4 2
   5    3    5 1
   6    3    6 1
   7    3    7 1
   8    5   29 1
   9    6   10 1
  10    6   30 1
  11    6   31 1
  12    7    8 1
  13    8    9 1
  14    8   11 1
  15    8   32 1
  16    9   10 1
  17    9   16 1
  18    9   33 1
  19   10   18 1
  20   10   34 1
  21   11   12 1
  22   11   35 1
  23   11   36 1
  24   12   13 1
  25   12   15 1
  26   12   37 1
  27   13   14 1
  28   13   38 1
  29   13   39 1
  30   14   19 1
  31   15   40 1
  32   16   17 1
  33   16   22 1
  34   16   41 1
  35   17   42 1
  36   18   43 1
  37   19   20 2
  38   19   21 2
  39   19   27 1
  40   22   24 am
  41   22   44 1
  42   23   24 2
  43   24   25 1
  44   25   45 1
  45   25   46 1
  46   25   47 1
  47   26   27 1
  48   26   48 1
  49   26   49 1
  50   26   50 1
  51   27   51 1
  52   27   52 1

#	End of record

