#	Name: ASD02120014
#	Creating user name:	WinNT
#	Creation time:	15. 06. 2019 20:18

#	Modifying user name:	WinNT
#	Modification time:	15. 06. 2019 20:18

#	Program:	/corina/corina34_cracker 3.40 0067  02.08.2006

@<TRIPOS>MOLECULE
ASD02120014
 232  237    0    0    0
SMALL
NO_CHARGES


@<TRIPOS>ATOM
   1 C1            -6.6676     0.2047    -0.5315 C.3     
   2 C2            -6.6655    -1.3000    -0.6134 C.2     
   3 C3            -5.2595     0.7310    -0.8179 C.3     
   4 C4            -7.6439     0.7706    -1.5647 C.3     
   5 C5            -5.2289     2.2465    -0.6101 C.3     
   6 C6            -4.1080     2.6040     0.3682 C.3     
   7 C7            -4.4169     1.9999     1.7395 C.3     
   8 C8            -3.1933     2.1411     2.6470 C.3     
   9 C9            -3.2380     1.0648     3.7338 C.3     
  10 C10           -2.3924     1.5106     4.9286 C.3     
  11 C11           -2.4515     0.4419     6.0218 C.3     
  12 C12           -1.6820     0.9275     7.2515 C.3     
  13 O13           -5.6727    -1.9305    -0.3172 O.2     
  14 C14           -9.0398    -8.7048     3.6150 C.3     
  15 C15           -9.2719    -8.5825     5.0988 C.2     
  16 O16          -10.3514    -8.2286     5.5234 O.2     
  17 N17           -2.1877    -2.3507    10.9195 N.3     
  18 C18           -1.3816    -1.9832     9.7477 C.3     
  19 C19           -1.4644    -3.0795     8.7171 C.2     
  20 O20           -2.1649    -2.9389     7.7371 O.2     
  21 C21           -1.9158    -0.6799     9.1501 C.3     
  22 C22            0.0759    -1.7903    10.1714 C.3     
  23 C23           -1.0453    -0.2697     7.9604 C.3     
  24 C24           -9.6510   -10.0116     3.1056 C.3     
  25 C25           -9.3117   -10.1903     1.6482 C.2     
  26 C26          -10.0760    -9.8399     0.6017 C.2     
  27 N27           -9.4394   -10.1564    -0.5675 N.pl3   
  28 C28           -8.2190   -10.7327    -0.2948 C.ar    
  29 C29           -8.0828   -10.7735     1.1047 C.ar    
  30 C30           -7.1940   -11.2287    -1.0941 C.ar    
  31 C31           -6.0648   -11.7575    -0.5087 C.ar    
  32 C32           -5.9379   -11.8012     0.8731 C.ar    
  33 C33           -6.9290   -11.3130     1.6769 C.ar    
  34 C34          -17.2886     1.3805     4.7273 C.2     
  35 C35          -18.6808     0.8544     4.9639 C.3     
  36 O36          -16.8607     1.4765     3.5965 O.2     
  37 C37           -6.3004    -3.8674    -0.7039 C.3     
  38 C38           -7.7087    -3.4172    -1.0976 C.3     
  39 C39           -8.7137    -4.0130    -0.1455 C.2     
  40 N40           -7.7958    -1.9429    -1.0247 N.am    
  41 O41           -9.6246    -3.3405     0.2893 O.2     
  42 C42           -6.1837    -5.3600    -0.8762 C.2     
  43 N43           -6.1789    -6.0468    -2.0602 N.pl3   
  44 C44           -6.0559    -7.3579    -1.7610 C.2     
  45 N45           -5.9874    -7.4865    -0.4642 N.2     
  46 C46           -6.0581    -6.2739     0.1049 C.2     
  47 C47          -10.8277    -6.3062     0.3550 C.3     
  48 C48           -9.5974    -5.8565     1.1455 C.3     
  49 C49           -9.0090    -7.0349     1.8777 C.2     
  50 N50           -8.5830    -5.3181     0.2181 N.am    
  51 O51           -7.9494    -7.5104     1.5282 O.2     
  52 C52          -11.4852    -5.1062    -0.2766 C.ar    
  53 C53          -11.1070    -4.6984    -1.5425 C.ar    
  54 C54          -11.7082    -3.5988    -2.1236 C.ar    
  55 C55          -12.6922    -2.9034    -1.4359 C.ar    
  56 C56          -13.0699    -3.3146    -0.1659 C.ar    
  57 C57          -12.4697    -4.4183     0.4085 C.ar    
  58 O58          -13.2848    -1.8210    -2.0053 O.3     
  59 N59           -9.6859    -7.5581     2.9394 N.am    
  60 C60          -15.2370     3.5170     4.6786 C.3     
  61 C61          -15.1657     2.2559     5.5421 C.3     
  62 C62          -14.3462     1.2080     4.8340 C.2     
  63 N63          -16.5191     1.7445     5.7722 N.am    
  64 O64          -14.8980     0.3110     4.2324 O.2     
  65 C65          -15.9619     4.6223     5.4491 C.3     
  66 C66          -15.1346     5.0169     6.6742 C.3     
  67 C67          -16.1435     5.8412     4.5424 C.3     
  68 C68          -12.0276    -0.9650     5.0956 C.3     
  69 C69          -12.2037     0.2488     4.1809 C.3     
  70 C70          -10.8516     0.8174     3.8350 C.2     
  71 N71          -13.0003     1.2676     4.8693 N.am    
  72 O72          -10.4706     1.8403     4.3636 O.2     
  73 C73          -13.4012    -1.5286     5.4651 C.3     
  74 O74          -11.2685    -1.9672     4.4164 O.3     
  75 C75           -7.7413     0.1296     3.6960 C.3     
  76 C76           -8.7186     0.6950     2.6635 C.3     
  77 C77           -8.2933     0.2673     1.2824 C.2     
  78 N78          -10.0658     0.1892     2.9381 N.am    
  79 O79           -9.0418    -0.3948     0.5952 O.2     
  80 C80           -8.0942     0.6569     5.0630 C.ar    
  81 C81           -8.9814    -0.0376     5.8638 C.ar    
  82 C82           -9.3051     0.4461     7.1177 C.ar    
  83 C83           -8.7412     1.6240     7.5709 C.ar    
  84 C84           -7.8532     2.3180     6.7704 C.ar    
  85 C85           -7.5262     1.8321     5.5183 C.ar    
  86 N86           -7.0811     0.6205     0.8110 N.am    
  87 C87           -9.1889   -10.0132     7.9228 C.3     
  88 C88           -8.5458    -8.7283     7.3970 C.3     
  89 C89           -7.2556    -8.4728     8.1321 C.2     
  90 N90           -8.2573    -8.8739     5.9569 N.am    
  91 O91           -6.2702    -9.1400     7.8983 O.2     
  92 C92           -6.0853    -7.6445    11.2423 C.3     
  93 C93           -5.9222    -7.2986     9.7609 C.3     
  94 C94           -5.4908    -5.8612     9.6224 C.2     
  95 N95           -7.2144    -7.4780     9.0649 N.am    
  96 O96           -6.1490    -5.0930     8.9624 O.2     
  97 C97           -6.4177    -9.1311    11.3853 C.3     
  98 C98           -6.5784    -9.4718    12.8445 C.2     
  99 O99           -6.4406    -8.6104    13.6871 O.2     
 100 N100          -6.8751   -10.7337    13.2132 N.am    
 101 C101          -4.8895    -3.0371    10.7555 C.3     
 102 C102          -3.8182    -3.9544    10.1624 C.3     
 103 C103          -4.2540    -5.3904    10.2998 C.2     
 104 N104          -2.5520    -3.7574    10.8809 N.3     
 105 O105          -3.5982    -6.1594    10.9612 O.2     
 106 C106          -4.9657    -3.2535    12.2682 C.3     
 107 C107          -5.8922    -2.2050    12.8873 C.3     
 108 C108          -5.5141    -4.6525    12.5563 C.3     
 109 C109          -0.6259    -6.6473     8.6532 C.3     
 110 C110          -0.9255    -5.3260     7.9424 C.3     
 111 C111           0.0258    -5.1502     6.7869 C.2     
 112 N112          -0.7599    -4.2163     8.8844 N.am    
 113 O113           0.7689    -4.1923     6.7535 O.2     
 114 O114           0.7513    -6.6825     9.0327 O.3     
 115 N115           0.0508    -6.0575     5.7906 N.am    
 116 H116          -4.5496     0.2570    -0.1399 H       
 117 H117          -4.9878     0.5000    -1.8479 H       
 118 H118          -8.6465     0.3944    -1.3615 H       
 119 H119          -7.6452     1.8590    -1.5053 H       
 120 H120          -7.3354     0.4617    -2.5635 H       
 121 H121          -5.0493     2.7406    -1.5649 H       
 122 H122          -6.1849     2.5769    -0.2040 H       
 123 H123          -3.1630     2.2048    -0.0002 H       
 124 H124          -4.0348     3.6879     0.4567 H       
 125 H125          -5.2622     2.5242     2.1853 H       
 126 H126          -4.6639     0.9446     1.6242 H       
 127 H127          -2.2860     2.0221     2.0549 H       
 128 H128          -3.1973     3.1271     3.1117 H       
 129 H129          -4.2689     0.9147     4.0542 H       
 130 H130          -2.8413     0.1306     3.3364 H       
 131 H131          -1.3588     1.6487     4.6109 H       
 132 H132          -2.7815     2.4511     5.3185 H       
 133 H133          -3.4908     0.2568     6.2932 H       
 134 H134          -2.0025    -0.4804     5.6530 H       
 135 H135          -0.9020     1.6227     6.9409 H       
 136 H136          -2.3672     1.4312     7.9334 H       
 137 H137          -7.9693    -8.6943     3.4100 H       
 138 H138          -1.7041    -2.1258    11.7760 H       
 139 H139          -2.9425    -0.8277     8.8152 H       
 140 H140          -1.8898     0.1043     9.9067 H       
 141 H141           0.4563    -2.7187    10.5973 H       
 142 H142           0.6739    -1.5176     9.3019 H       
 143 H143           0.1357    -0.9973    10.9168 H       
 144 H144          -0.9656    -1.1042     7.2637 H       
 145 H145          -0.0515     0.0041     8.3146 H       
 146 H146          -9.2488   -10.8479     3.6774 H       
 147 H147         -10.7338    -9.9771     3.2250 H       
 148 H148         -11.0494    -9.3774     0.6721 H       
 149 H149          -9.7950    -9.9985    -1.4560 H       
 150 H150          -7.2835   -11.1995    -2.1700 H       
 151 H151          -5.2704   -12.1424    -1.1309 H       
 152 H152          -5.0461   -12.2195     1.3162 H       
 153 H153          -6.8233   -11.3502     2.7511 H       
 154 H154         -19.1459     0.6143     4.0078 H       
 155 H155         -18.6300    -0.0440     5.5791 H       
 156 H156         -19.2735     1.6124     5.4761 H       
 157 H157          -5.5687    -3.3699    -1.3404 H       
 158 H158          -6.1133    -3.6062     0.3376 H       
 159 H159          -7.9263    -3.7460    -2.1138 H       
 160 H160          -8.6066    -1.4628    -1.2549 H       
 161 H161          -6.2505    -5.6633    -2.9483 H       
 162 H162          -6.0204    -8.1662    -2.4765 H       
 163 H163          -6.0231    -6.0670     1.1643 H       
 164 H164         -10.5236    -7.0056    -0.4237 H       
 165 H165         -11.5329    -6.7950     1.0272 H       
 166 H166          -9.8844    -5.0855     1.8606 H       
 167 H167          -7.8577    -5.8684    -0.1166 H       
 168 H168         -10.3407    -5.2399    -2.0772 H       
 169 H169         -11.4121    -3.2804    -3.1122 H       
 170 H170         -13.8357    -2.7749     0.3714 H       
 171 H171         -12.7665    -4.7414     1.3954 H       
 172 H172         -14.0735    -2.0317    -2.5236 H       
 173 H173         -10.5381    -7.2003     3.2338 H       
 174 H174         -14.2275     3.8470     4.4335 H       
 175 H175         -15.7809     3.2979     3.7598 H       
 176 H176         -14.7006     2.4961     6.4982 H       
 177 H177         -16.8613     1.6677     6.6765 H       
 178 H178         -16.9382     4.2604     5.7713 H       
 179 H179         -14.1582     5.3788     6.3521 H       
 180 H180         -15.6510     5.8043     7.2231 H       
 181 H181         -15.0051     4.1485     7.3202 H       
 182 H182         -16.7329     5.5602     3.6696 H       
 183 H183         -16.6600     6.6287     5.0913 H       
 184 H184         -15.1672     6.2032     4.2202 H       
 185 H185         -11.5027    -0.6637     6.0021 H       
 186 H186         -12.7143    -0.0557     3.2674 H       
 187 H187         -12.5590     1.9850     5.3504 H       
 188 H188         -13.9261    -1.8299     4.5586 H       
 189 H189         -13.2757    -2.3933     6.1168 H       
 190 H190         -13.9802    -0.7642     5.9833 H       
 191 H191         -10.3857    -1.6776     4.1482 H       
 192 H192          -7.8049    -0.9585     3.6988 H       
 193 H193          -6.7263     0.4336     3.4402 H       
 194 H194          -8.7201     1.7834     2.7224 H       
 195 H195         -10.3923    -0.5977     2.4744 H       
 196 H196          -9.4220    -0.9579     5.5098 H       
 197 H197          -9.9989    -0.0962     7.7431 H       
 198 H198          -8.9946     2.0022     8.5502 H       
 199 H199          -7.4129     3.2385     7.1243 H       
 200 H200          -6.8296     2.3723     4.8944 H       
 201 H201          -6.4824     1.1500     1.3606 H       
 202 H202          -9.3934    -9.9074     8.9882 H       
 203 H203         -10.1220   -10.1967     7.3902 H       
 204 H204          -8.5094   -10.8507     7.7646 H       
 205 H205          -9.2264    -7.8907     7.5498 H       
 206 H206          -7.3880    -9.1632     5.6383 H       
 207 H207          -5.1569    -7.4273    11.7705 H       
 208 H208          -6.8932    -7.0490    11.6676 H       
 209 H209          -5.1721    -7.9499     9.3122 H       
 210 H210          -7.9855    -6.9228     9.2598 H       
 211 H211          -7.3460    -9.3483    10.8571 H       
 212 H212          -5.6098    -9.7266    10.9600 H       
 213 H213          -6.9853   -11.4227    12.5393 H       
 214 H214          -6.9786   -10.9530    14.1524 H       
 215 H215          -4.6326    -1.9980    10.5496 H       
 216 H216          -5.8552    -3.2685    10.3062 H       
 217 H217          -3.6786    -3.7162     9.1080 H       
 218 H218          -1.8142    -4.3109    10.4719 H       
 219 H219          -3.9693    -3.1579    12.6996 H       
 220 H220          -6.8886    -2.3006    12.4559 H       
 221 H221          -5.9465    -2.3592    13.9650 H       
 222 H222          -5.5015    -1.2084    12.6821 H       
 223 H223          -6.4099    -4.8217    11.9588 H       
 224 H224          -4.7608    -5.3977    12.3008 H       
 225 H225          -5.7623    -4.7346    13.6144 H       
 226 H226          -1.2502    -6.7311     9.5427 H       
 227 H227          -0.8387    -7.4781     7.9804 H       
 228 H228          -1.9502    -5.3374     7.5709 H       
 229 H229          -0.1433    -4.2996     9.6285 H       
 230 H230           1.0128    -7.4936     9.4895 H       
 231 H231          -0.5436    -6.8236     5.8172 H       
 232 H232           0.6631    -5.9444     5.0468 H       
@<TRIPOS>BOND
   1    1    2 1
   2    1    3 1
   3    1    4 1
   4    1   86 1
   5    2   13 2
   6    2   40 am
   7    3    5 1
   8    3  116 1
   9    3  117 1
  10    4  118 1
  11    4  119 1
  12    4  120 1
  13    5    6 1
  14    5  121 1
  15    5  122 1
  16    6    7 1
  17    6  123 1
  18    6  124 1
  19    7    8 1
  20    7  125 1
  21    7  126 1
  22    8    9 1
  23    8  127 1
  24    8  128 1
  25    9   10 1
  26    9  129 1
  27    9  130 1
  28   10   11 1
  29   10  131 1
  30   10  132 1
  31   11   12 1
  32   11  133 1
  33   11  134 1
  34   12   23 1
  35   12  135 1
  36   12  136 1
  37   14   15 1
  38   14   24 1
  39   14   59 1
  40   14  137 1
  41   15   16 2
  42   15   90 am
  43   17   18 1
  44   17  104 1
  45   17  138 1
  46   18   19 1
  47   18   21 1
  48   18   22 1
  49   19   20 2
  50   19  112 am
  51   21   23 1
  52   21  139 1
  53   21  140 1
  54   22  141 1
  55   22  142 1
  56   22  143 1
  57   23  144 1
  58   23  145 1
  59   24   25 1
  60   24  146 1
  61   24  147 1
  62   25   26 2
  63   25   29 1
  64   26   27 1
  65   26  148 1
  66   27   28 1
  67   27  149 1
  68   28   29 ar
  69   28   30 ar
  70   29   33 ar
  71   30   31 ar
  72   30  150 1
  73   31   32 ar
  74   31  151 1
  75   32   33 ar
  76   32  152 1
  77   33  153 1
  78   34   36 2
  79   34   63 am
  80   34   35 1
  81   35  154 1
  82   35  155 1
  83   35  156 1
  84   37   42 1
  85   37   38 1
  86   37  157 1
  87   37  158 1
  88   38   39 1
  89   38   40 1
  90   38  159 1
  91   39   41 2
  92   39   50 am
  93   40  160 1
  94   42   43 1
  95   42   46 2
  96   43   44 1
  97   43  161 1
  98   44   45 2
  99   44  162 1
 100   45   46 1
 101   46  163 1
 102   47   52 1
 103   47   48 1
 104   47  164 1
 105   47  165 1
 106   48   49 1
 107   48   50 1
 108   48  166 1
 109   49   51 2
 110   49   59 am
 111   50  167 1
 112   52   53 ar
 113   52   57 ar
 114   53   54 ar
 115   53  168 1
 116   54   55 ar
 117   54  169 1
 118   55   56 ar
 119   55   58 1
 120   56   57 ar
 121   56  170 1
 122   57  171 1
 123   58  172 1
 124   59  173 1
 125   60   65 1
 126   60   61 1
 127   60  174 1
 128   60  175 1
 129   61   63 1
 130   61   62 1
 131   61  176 1
 132   62   64 2
 133   62   71 am
 134   63  177 1
 135   65   66 1
 136   65   67 1
 137   65  178 1
 138   66  179 1
 139   66  180 1
 140   66  181 1
 141   67  182 1
 142   67  183 1
 143   67  184 1
 144   68   69 1
 145   68   73 1
 146   68   74 1
 147   68  185 1
 148   69   71 1
 149   69   70 1
 150   69  186 1
 151   70   72 2
 152   70   78 am
 153   71  187 1
 154   73  188 1
 155   73  189 1
 156   73  190 1
 157   74  191 1
 158   75   80 1
 159   75   76 1
 160   75  192 1
 161   75  193 1
 162   76   77 1
 163   76   78 1
 164   76  194 1
 165   77   79 2
 166   77   86 am
 167   78  195 1
 168   80   81 ar
 169   80   85 ar
 170   81   82 ar
 171   81  196 1
 172   82   83 ar
 173   82  197 1
 174   83   84 ar
 175   83  198 1
 176   84   85 ar
 177   84  199 1
 178   85  200 1
 179   86  201 1
 180   87   88 1
 181   87  202 1
 182   87  203 1
 183   87  204 1
 184   88   89 1
 185   88   90 1
 186   88  205 1
 187   89   91 2
 188   89   95 am
 189   90  206 1
 190   92   97 1
 191   92   93 1
 192   92  207 1
 193   92  208 1
 194   93   95 1
 195   93   94 1
 196   93  209 1
 197   94   96 2
 198   94  103 1
 199   95  210 1
 200   97   98 1
 201   97  211 1
 202   97  212 1
 203   98   99 2
 204   98  100 am
 205  100  213 1
 206  100  214 1
 207  101  106 1
 208  101  102 1
 209  101  215 1
 210  101  216 1
 211  102  104 1
 212  102  103 1
 213  102  217 1
 214  103  105 2
 215  104  218 1
 216  106  107 1
 217  106  108 1
 218  106  219 1
 219  107  220 1
 220  107  221 1
 221  107  222 1
 222  108  223 1
 223  108  224 1
 224  108  225 1
 225  109  114 1
 226  109  110 1
 227  109  226 1
 228  109  227 1
 229  110  112 1
 230  110  111 1
 231  110  228 1
 232  111  113 2
 233  111  115 am
 234  112  229 1
 235  114  230 1
 236  115  231 1
 237  115  232 1

#	End of record

