#	Name: ASD04840020
#	Creating user name:	WinNT
#	Creation time:	15. 06. 2019 20:52

#	Modifying user name:	WinNT
#	Modification time:	15. 06. 2019 20:52

#	Program:	/corina/corina34_cracker 3.40 0067  02.08.2006

@<TRIPOS>MOLECULE
ASD04840020
  44   47    0    0    0
SMALL
NO_CHARGES


@<TRIPOS>ATOM
   1 C1             5.9945    -2.5723    -0.3372 C.3     
   2 O2             4.6292    -3.0549    -0.2302 O.3     
   3 C3             3.7380    -2.5711    -1.1179 C.2     
   4 O4             4.0922    -1.7680    -1.9583 O.2     
   5 C5             2.3344    -3.0159    -1.0695 C.ar    
   6 C6             1.8954    -3.8467    -0.0351 C.ar    
   7 C7             0.5812    -4.2587     0.0045 C.ar    
   8 C8            -0.3097    -3.8537    -0.9766 C.ar    
   9 C9             0.1082    -3.0338    -2.0050 C.ar    
  10 C10            1.4277    -2.6030    -2.0593 C.ar    
  11 N11            1.8509    -1.7775    -3.0936 N.pl3   
  12 C12            2.5529    -2.3122    -4.1659 C.ar    
  13 C13            2.7863    -3.6777    -4.2584 C.ar    
  14 C14            3.4897    -4.1808    -5.3408 C.ar    
  15 C15            3.7373    -5.6645    -5.4313 C.3     
  16 N16            3.9463    -3.3947    -6.2918 N.ar    
  17 C17            3.7565    -2.0782    -6.2625 C.ar    
  18 C18            3.0461    -1.4840    -5.1983 C.ar    
  19 C19            2.8457    -0.0877    -5.1706 C.ar    
  20 C20            3.3215     0.7108    -6.1493 C.ar    
  21 C21            4.0413     0.1800    -7.2442 C.ar    
  22 C22            4.2698    -1.2118    -7.3287 C.ar    
  23 C23            4.9808    -1.7332    -8.4117 C.ar    
  24 C24            5.4494    -0.8927    -9.3806 C.ar    
  25 C25            5.2268     0.4773    -9.3013 C.ar    
  26 C26            4.5325     1.0155    -8.2581 C.ar    
  27 H27            6.3932    -2.8248    -1.3197 H       
  28 H28            6.0087    -1.4903    -0.2064 H       
  29 H29            6.6065    -3.0396     0.4343 H       
  30 H30            2.5854    -4.1657     0.7320 H       
  31 H31            0.2437    -4.9010     0.8045 H       
  32 H32           -1.3378    -4.1823    -0.9364 H       
  33 H33           -0.5924    -2.7234    -2.7661 H       
  34 H34            1.6560    -0.8276    -3.0668 H       
  35 H35            2.4219    -4.3441    -3.4906 H       
  36 H36            2.9171    -6.1375    -5.9713 H       
  37 H37            4.6729    -5.8451    -5.9607 H       
  38 H38            3.8011    -6.0841    -4.4273 H       
  39 H39            2.2997     0.3516    -4.3488 H       
  40 H40            3.1487     1.7755    -6.0951 H       
  41 H41            5.1595    -2.7960    -8.4825 H       
  42 H42            5.9995    -1.2967   -10.2176 H       
  43 H43            5.6062     1.1242   -10.0785 H       
  44 H44            4.3668     2.0816    -8.2098 H       
@<TRIPOS>BOND
   1    1    2 1
   2    1   27 1
   3    1   28 1
   4    1   29 1
   5    2    3 1
   6    3    4 2
   7    3    5 1
   8    5    6 ar
   9    5   10 ar
  10    6    7 ar
  11    6   30 1
  12    7    8 ar
  13    7   31 1
  14    8    9 ar
  15    8   32 1
  16    9   10 ar
  17    9   33 1
  18   10   11 1
  19   11   12 1
  20   11   34 1
  21   12   13 ar
  22   12   18 ar
  23   13   14 ar
  24   13   35 1
  25   14   15 1
  26   14   16 ar
  27   15   36 1
  28   15   37 1
  29   15   38 1
  30   16   17 ar
  31   17   18 ar
  32   17   22 ar
  33   18   19 ar
  34   19   20 ar
  35   19   39 1
  36   20   21 ar
  37   20   40 1
  38   21   22 ar
  39   21   26 ar
  40   22   23 ar
  41   23   24 ar
  42   23   41 1
  43   24   25 ar
  44   24   42 1
  45   25   26 ar
  46   25   43 1
  47   26   44 1

#	End of record

