#	Name: ASD01914968
#	Creating user name:	WinNT
#	Creation time:	15. 06. 2019 20:04

#	Modifying user name:	WinNT
#	Modification time:	15. 06. 2019 20:04

#	Program:	/corina/corina34_cracker 3.40 0067  02.08.2006

@<TRIPOS>MOLECULE
ASD01914968
  63   66    0    0    0
SMALL
NO_CHARGES


@<TRIPOS>ATOM
   1 C1            -0.0158     1.3120     0.0093 C.2     
   2 N2             0.0021    -0.0041     0.0020 N.2     
   3 C3             1.3183     1.7637    -0.0011 C.2     
   4 C4             2.1227     0.6785    -0.0146 C.2     
   5 N5             1.3391    -0.4213    -0.0130 N.pl3   
   6 C6            -1.2277     2.1688     0.0199 C.ar    
   7 C7            -1.1060     3.5534    -0.0787 C.ar    
   8 C8            -2.2361     4.3453    -0.0683 C.ar    
   9 C9            -3.4881     3.7669     0.0399 C.ar    
  10 C10           -3.6147     2.3932     0.1381 C.ar    
  11 C11           -2.4912     1.5913     0.1229 C.ar    
  12 C12            3.6295     0.6928    -0.0298 C.3     
  13 C13            1.8064    -1.8097    -0.0242 C.3     
  14 C14            1.9794    -2.2929     1.3927 C.2     
  15 N15            2.4043    -3.5500     1.6289 N.am    
  16 O16            1.7364    -1.5506     2.3205 O.2     
  17 C17            2.5778    -4.0355     3.0047 C.3     
  18 C18            3.9974    -4.5909     3.1562 C.3     
  19 C19            4.2438    -5.6506     2.0800 C.3     
  20 C20            4.1204    -5.0117     0.6948 C.3     
  21 C21            2.6968    -4.4629     0.5154 C.3     
  22 C22            4.1530     0.8157     1.4026 C.3     
  23 C23            5.6276    -6.2236     2.2471 C.ar    
  24 N24            5.7626    -7.5148     2.4739 N.ar    
  25 C25           -4.7186     4.6369     0.0513 C.3     
  26 C26            6.9602    -8.0558     2.6257 C.ar    
  27 C27            8.0845    -7.2410     2.5429 C.ar    
  28 C28            7.8986    -5.8837     2.3023 C.ar    
  29 N29            6.6682    -5.4201     2.1568 N.ar    
  30 O30            9.3326    -7.7578     2.6936 O.3     
  31 C31           10.4286    -6.8465     2.5928 C.3     
  32 C32           -4.9818     1.7704     0.2562 C.3     
  33 H33            1.6407     2.7944     0.0011 H       
  34 H34           -0.1290     4.0060    -0.1629 H       
  35 H35           -2.1429     5.4186    -0.1443 H       
  36 H36           -2.5911     0.5186     0.1996 H       
  37 H37            3.9972    -0.2327    -0.4729 H       
  38 H38            3.9789     1.5412    -0.6184 H       
  39 H39            1.0741    -2.4354    -0.5345 H       
  40 H40            2.7611    -1.8676    -0.5470 H       
  41 H41            2.4309    -3.2123     3.7039 H       
  42 H42            1.8533    -4.8240     3.2080 H       
  43 H43            4.7188    -3.7817     3.0420 H       
  44 H44            4.1085    -5.0414     4.1425 H       
  45 H45            3.5067    -6.4474     2.1793 H       
  46 H46            4.8406    -4.1986     0.6037 H       
  47 H47            4.3190    -5.7617    -0.0708 H       
  48 H48            1.9844    -5.2879     0.5155 H       
  49 H49            2.6305    -3.9202    -0.4275 H       
  50 H50            5.2428     0.8260     1.3915 H       
  51 H51            3.7853     1.7413     1.8456 H       
  52 H52            3.8036    -0.0326     1.9911 H       
  53 H53           -5.0725     4.7791    -0.9698 H       
  54 H54           -5.4981     4.1561     0.6424 H       
  55 H55           -4.4752     5.6048     0.4896 H       
  56 H56            7.0635    -9.1146     2.8117 H       
  57 H57            8.7467    -5.2187     2.2315 H       
  58 H58           11.3647    -7.3872     2.7320 H       
  59 H59           10.4224    -6.3782     1.6086 H       
  60 H60           10.3347    -6.0789     3.3610 H       
  61 H61           -5.3689     1.5523    -0.7392 H       
  62 H62           -4.9116     0.8459     0.8293 H       
  63 H63           -5.6538     2.4624     0.7638 H       
@<TRIPOS>BOND
   1    1    2 2
   2    1    3 1
   3    1    6 1
   4    2    5 1
   5    3    4 2
   6    3   33 1
   7    4    5 1
   8    4   12 1
   9    5   13 1
  10    6    7 ar
  11    6   11 ar
  12    7    8 ar
  13    7   34 1
  14    8    9 ar
  15    8   35 1
  16    9   10 ar
  17    9   25 1
  18   10   11 ar
  19   10   32 1
  20   11   36 1
  21   12   22 1
  22   12   37 1
  23   12   38 1
  24   13   14 1
  25   13   39 1
  26   13   40 1
  27   14   15 am
  28   14   16 2
  29   15   17 1
  30   15   21 1
  31   17   18 1
  32   17   41 1
  33   17   42 1
  34   18   19 1
  35   18   43 1
  36   18   44 1
  37   19   20 1
  38   19   23 1
  39   19   45 1
  40   20   21 1
  41   20   46 1
  42   20   47 1
  43   21   48 1
  44   21   49 1
  45   22   50 1
  46   22   51 1
  47   22   52 1
  48   23   24 ar
  49   23   29 ar
  50   24   26 ar
  51   25   53 1
  52   25   54 1
  53   25   55 1
  54   26   27 ar
  55   26   56 1
  56   27   28 ar
  57   27   30 1
  58   28   29 ar
  59   28   57 1
  60   30   31 1
  61   31   58 1
  62   31   59 1
  63   31   60 1
  64   32   61 1
  65   32   62 1
  66   32   63 1

#	End of record

