#	Name: ASD02198387
#	Creating user name:	WinNT
#	Creation time:	15. 06. 2019 20:19

#	Modifying user name:	WinNT
#	Modification time:	15. 06. 2019 20:19

#	Program:	/corina/corina34_cracker 3.40 0067  02.08.2006

@<TRIPOS>MOLECULE
ASD02198387
  33   35    0    0    0
SMALL
NO_CHARGES


@<TRIPOS>ATOM
   1 C1            -0.1417     1.5985     0.3889 C.2     
   2 C2            -0.2009     0.2660     0.3738 C.2     
   3 C3             1.1329     2.1270     0.2781 C.2     
   4 C4             2.1087     1.2238     0.1731 C.2     
   5 S5             1.4211    -0.3946     0.2122 S.3     
   6 S6             3.8241     1.5951     0.0178 S.o2    
   7 N7             4.4490     1.6748     1.5493 N.am    
   8 C8             4.3786     0.5646     2.3895 C.ar    
   9 C9             4.1672     0.7362     3.7758 C.ar    
  10 C10            4.0983    -0.4054     4.6114 C.ar    
  11 C11            4.2406    -1.6863     4.0558 C.ar    
  12 C12            4.4463    -1.8250     2.7015 C.ar    
  13 C13            4.5090    -0.7039     1.8713 C.ar    
  14 N14            4.0328     1.9558     4.3037 N.ar    
  15 C15            3.8367     2.1254     5.5886 C.ar    
  16 C16            3.7587     1.0463     6.4666 C.ar    
  17 C17            3.8873    -0.2280     5.9926 C.ar    
  18 O18            4.4245     0.4663    -0.6023 O.2     
  19 O19            3.9034     2.9093    -0.5168 O.2     
  20 O20            4.5838    -3.0664     2.1662 O.3     
  21 C21            4.5039    -4.1735     3.0662 C.3     
  22 H22           -1.0219     2.2181     0.4764 H       
  23 H23           -1.1063    -0.3179     0.4496 H       
  24 H24            1.3227     3.1902     0.2765 H       
  25 H25            4.8640     2.4939     1.8618 H       
  26 H26            4.1894    -2.5601     4.6884 H       
  27 H27            4.6707    -0.8333     0.8113 H       
  28 H28            3.7333     3.1278     5.9770 H       
  29 H29            3.5963     1.2173     7.5205 H       
  30 H30            3.8296    -1.0762     6.6586 H       
  31 H31            5.2902    -4.0893     3.8164 H       
  32 H32            3.5311    -4.1726     3.5578 H       
  33 H33            4.6295    -5.1030     2.5109 H       
@<TRIPOS>BOND
   1    1    2 2
   2    1    3 1
   3    1   22 1
   4    2    5 1
   5    2   23 1
   6    3    4 2
   7    3   24 1
   8    4    5 1
   9    4    6 1
  10    6    7 am
  11    6   18 2
  12    6   19 2
  13    7    8 1
  14    7   25 1
  15    8    9 ar
  16    8   13 ar
  17    9   10 ar
  18    9   14 ar
  19   10   11 ar
  20   10   17 ar
  21   11   12 ar
  22   11   26 1
  23   12   13 ar
  24   12   20 1
  25   13   27 1
  26   14   15 ar
  27   15   16 ar
  28   15   28 1
  29   16   17 ar
  30   16   29 1
  31   17   30 1
  32   20   21 1
  33   21   31 1
  34   21   32 1
  35   21   33 1

#	End of record

