#	Name: ASD03330096
#	Creating user name:	WinNT
#	Creation time:	15. 06. 2019 20:36

#	Modifying user name:	WinNT
#	Modification time:	15. 06. 2019 20:36

#	Program:	/corina/corina34_cracker 3.40 0067  02.08.2006

@<TRIPOS>MOLECULE
ASD03330096
  19   20    0    0    0
SMALL
NO_CHARGES


@<TRIPOS>ATOM
   1 O1            -0.0161     1.3398     0.0094 O.3     
   2 C2             0.0021    -0.0041     0.0020 C.2     
   3 N3             1.1976    -0.5022    -0.0121 N.2     
   4 C4             2.1410     0.6289    -0.0150 C.3     
   5 C5             1.2320     1.8433     0.0002 C.2     
   6 O6             1.5570     3.0070     0.0033 O.2     
   7 C7            -1.2228    -0.8328     0.0093 C.ar    
   8 C8            -2.4792    -0.2250     0.0240 C.ar    
   9 C9            -3.6194    -1.0034     0.0308 C.ar    
  10 C10           -3.5163    -2.3880     0.0229 C.ar    
  11 C11           -2.2708    -2.9942     0.0087 C.ar    
  12 C12           -1.1261    -2.2246    -0.0044 C.ar    
  13 F13           -4.6343    -3.1465     0.0296 F       
  14 F14           -4.8365    -0.4174     0.0455 F       
  15 H15            2.7690     0.6078     0.8756 H       
  16 H16            2.7519     0.6174    -0.9176 H       
  17 H17           -2.5593     0.8521     0.0305 H       
  18 H18           -2.1959    -4.0716     0.0030 H       
  19 H19           -0.1560    -2.6990    -0.0203 H       
@<TRIPOS>BOND
   1    1    2 1
   2    1    5 1
   3    2    3 2
   4    2    7 1
   5    3    4 1
   6    4    5 1
   7    4   15 1
   8    4   16 1
   9    5    6 2
  10    7    8 ar
  11    7   12 ar
  12    8    9 ar
  13    8   17 1
  14    9   10 ar
  15    9   14 1
  16   10   11 ar
  17   10   13 1
  18   11   12 ar
  19   11   18 1
  20   12   19 1

#	End of record

