#	Name: ASD01916247
#	Creating user name:	WinNT
#	Creation time:	15. 06. 2019 20:07

#	Modifying user name:	WinNT
#	Modification time:	15. 06. 2019 20:07

#	Program:	/corina/corina34_cracker 3.40 0067  02.08.2006

@<TRIPOS>MOLECULE
ASD01916247
  34   36    0    0    0
SMALL
NO_CHARGES


@<TRIPOS>ATOM
   1 C1             0.4261     1.2275    -0.4143 C.ar    
   2 C2             0.6388    -0.1378    -0.3267 C.ar    
   3 C3             1.7857    -0.6250     0.2719 C.ar    
   4 C4             2.7317     0.2611     0.7893 C.ar    
   5 C5             2.5149     1.6366     0.6997 C.ar    
   6 C6             1.3628     2.1149     0.0982 C.ar    
   7 O7             1.1492     3.4539     0.0092 O.3     
   8 C8             1.6343     4.1064    -1.0798 C.ar    
   9 C9             1.5444     5.4910    -1.1808 C.ar    
  10 N10            2.0289     6.0890    -2.2567 N.ar    
  11 C11            2.5901     5.3911    -3.2235 C.ar    
  12 N12            2.6937     4.0786    -3.1651 N.ar    
  13 C13            2.2387     3.4075    -2.1198 C.ar    
  14 F14           -0.2769    -0.9959    -0.8271 F       
  15 C15            3.9592    -0.2559     1.4306 C.2     
  16 N16            4.1662    -1.5849     1.5163 N.am    
  17 O17            4.7818     0.5176     1.8806 O.2     
  18 C18            5.3239    -2.0725     2.1211 C.ar    
  19 C19            5.5317    -3.4466     2.2064 C.ar    
  20 C20            6.6869    -3.9164     2.8102 C.ar    
  21 C21            7.5957    -2.9930     3.3086 C.ar    
  22 C22            7.3242    -1.6443     3.1891 C.ar    
  23 N23            6.2183    -1.2251     2.6043 N.ar    
  24 F24            4.6197    -4.3096     1.7079 F       
  25 H25           -0.4693     1.6035    -0.8868 H       
  26 H26            1.9494    -1.6904     0.3394 H       
  27 H27            3.2436     2.3265     1.0989 H       
  28 H28            1.0854     6.0692    -0.3925 H       
  29 H29            2.9759     5.9096    -4.0888 H       
  30 H30            2.3273     2.3319    -2.0784 H       
  31 H31            3.5098    -2.2022     1.1572 H       
  32 H32            6.8758    -4.9766     2.8916 H       
  33 H33            8.5057    -3.3261     3.7854 H       
  34 H34            8.0286    -0.9229     3.5759 H       
@<TRIPOS>BOND
   1    1    2 ar
   2    1    6 ar
   3    1   25 1
   4    2    3 ar
   5    2   14 1
   6    3    4 ar
   7    3   26 1
   8    4    5 ar
   9    4   15 1
  10    5    6 ar
  11    5   27 1
  12    6    7 1
  13    7    8 1
  14    8    9 ar
  15    8   13 ar
  16    9   10 ar
  17    9   28 1
  18   10   11 ar
  19   11   12 ar
  20   11   29 1
  21   12   13 ar
  22   13   30 1
  23   15   16 am
  24   15   17 2
  25   16   18 1
  26   16   31 1
  27   18   19 ar
  28   18   23 ar
  29   19   20 ar
  30   19   24 1
  31   20   21 ar
  32   20   32 1
  33   21   22 ar
  34   21   33 1
  35   22   23 ar
  36   22   34 1

#	End of record

