#	Name: ASD04500013
#	Creating user name:	WinNT
#	Creation time:	15. 06. 2019 20:49

#	Modifying user name:	WinNT
#	Modification time:	15. 06. 2019 20:49

#	Program:	/corina/corina34_cracker 3.40 0067  02.08.2006

@<TRIPOS>MOLECULE
ASD04500013
  81   87    0    0    0
SMALL
NO_CHARGES


@<TRIPOS>ATOM
   1 C1             0.9849    -0.4965     1.2285 C.ar    
   2 C2             1.2655    -1.8328     1.2763 C.ar    
   3 C3             2.5724    -2.2846     1.4072 C.ar    
   4 C4             3.6178    -1.3909     1.4915 C.ar    
   5 C5             3.3545    -0.0231     1.4443 C.ar    
   6 C6             2.0239     0.4352     1.3115 C.ar    
   7 N7             1.7868     1.7613     1.2675 N.2     
   8 C8             4.4288     0.9769     1.5290 C.2     
   9 N9             4.0732     2.2816     1.4737 N.am    
  10 C10            2.7578     2.6359     1.3445 C.2     
  11 O11            5.5939     0.6441     1.6449 O.2     
  12 C12            2.4178     4.0716     1.2885 C.ar    
  13 C13            1.3613     5.9146     0.1680 C.ar    
  14 C14            1.6764     4.5745     0.2165 C.ar    
  15 C15            2.8318     4.9298     2.3102 C.ar    
  16 C16            2.5126     6.2686     2.2542 C.ar    
  17 C17            1.7799     6.7659     1.1833 C.ar    
  18 C18            5.1026     3.3209     1.5540 C.3     
  19 N19            8.3218     5.9953    -1.0780 N.pl3   
  20 N20            8.1730     7.1662    -0.5645 N.2     
  21 N21            9.2712     7.8307    -0.6491 N.2     
  22 C22           10.1939     7.0679    -1.2460 C.2     
  23 C23            9.5942     5.8871    -1.5255 C.2     
  24 C24           11.6203     7.4487    -1.5484 C.3     
  25 N25           11.6738     8.1687    -2.8231 N.am    
  26 C26           11.4280     9.5140    -2.8547 C.2     
  27 N27           11.4587    10.2196    -3.9557 N.2     
  28 C28           11.7392     9.6583    -5.1488 C.ar    
  29 C29           12.0072     8.2716    -5.2124 C.ar    
  30 C30           11.9717     7.4997    -3.9613 C.2     
  31 C31           11.7715    10.4159    -6.3229 C.ar    
  32 C32           12.0626     9.8043    -7.5213 C.ar    
  33 C33           12.3248     8.4419    -7.5797 C.ar    
  34 C34           12.3033     7.6741    -6.4354 C.ar    
  35 C35           11.1125    10.2025    -1.5852 C.ar    
  36 C36           11.9863    10.1075    -0.5009 C.ar    
  37 C37           11.6886    10.7515     0.6828 C.ar    
  38 C38           10.5266    11.4915     0.7988 C.ar    
  39 C39            9.6510    11.5914    -0.2743 C.ar    
  40 C40            9.9429    10.9544    -1.4684 C.ar    
  41 O41           12.1976     6.3037    -3.9503 O.2     
  42 C42            5.6599     3.5958     0.1559 C.3     
  43 C43            6.7350     4.6812     0.2398 C.3     
  44 C44            7.2924     4.9561    -1.1583 C.3     
  45 S45            0.1481     8.4371     1.8038 S.o2    
  46 O46            0.4707     7.9843     3.1115 O.2     
  47 O47           -0.6992     7.6250     1.0026 O.2     
  48 O48            0.1694     9.8357     1.5537 O.2     
  49 O49            1.4677     8.0862     1.1316 O.3     
  50 S50            8.6653    13.7825    -0.5452 S.o2    
  51 O51            9.0670    13.5810    -1.8932 O.2     
  52 O52            9.6608    14.1324     0.4065 O.2     
  53 O53            7.3272    14.1920    -0.2978 O.2     
  54 O54            8.5099    12.3198    -0.1543 O.3     
  55 H55           -0.0362    -0.1611     1.1223 H       
  56 H56            0.4592    -2.5484     1.2118 H       
  57 H57            2.7709    -3.3455     1.4437 H       
  58 H58            4.6322    -1.7472     1.5935 H       
  59 H59            0.7885     6.3042    -0.6606 H       
  60 H60            1.3510     3.9136    -0.5732 H       
  61 H61            3.4009     4.5440     3.1430 H       
  62 H62            2.8319     6.9326     3.0438 H       
  63 H63            4.6658     4.2346     1.9572 H       
  64 H64            5.9082     2.9846     2.2067 H       
  65 H65           10.0415     5.0307    -2.0080 H       
  66 H66           12.0018     8.0891    -0.7531 H       
  67 H67           12.2307     6.5480    -1.6139 H       
  68 H68           11.5686    11.4761    -6.2902 H       
  69 H69           12.0870    10.3913    -8.4275 H       
  70 H70           12.5508     7.9805    -8.5296 H       
  71 H71           12.5157     6.6164    -6.4864 H       
  72 H72           12.8948     9.5300    -0.5881 H       
  73 H73           12.3653    10.6770     1.5212 H       
  74 H74           10.2988    11.9933     1.7276 H       
  75 H75            9.2629    11.0316    -2.3039 H       
  76 H76            6.0967     2.6821    -0.2472 H       
  77 H77            4.8543     3.9321    -0.4967 H       
  78 H78            6.2983     5.5948     0.6430 H       
  79 H79            7.5407     4.3448     0.8925 H       
  80 H80            6.4867     5.2924    -1.8109 H       
  81 H81            7.7292     4.0424    -1.5614 H       
@<TRIPOS>BOND
   1    1    2 ar
   2    1    6 ar
   3    1   55 1
   4    2    3 ar
   5    2   56 1
   6    3    4 ar
   7    3   57 1
   8    4    5 ar
   9    4   58 1
  10    5    6 ar
  11    5    8 1
  12    6    7 1
  13    7   10 2
  14    8    9 am
  15    8   11 2
  16    9   10 1
  17    9   18 1
  18   10   12 1
  19   12   15 ar
  20   12   14 ar
  21   13   14 ar
  22   13   17 ar
  23   13   59 1
  24   14   60 1
  25   15   16 ar
  26   15   61 1
  27   16   17 ar
  28   16   62 1
  29   17   49 1
  30   18   42 1
  31   18   63 1
  32   18   64 1
  33   19   20 1
  34   19   23 1
  35   19   44 1
  36   20   21 2
  37   21   22 1
  38   22   23 2
  39   22   24 1
  40   23   65 1
  41   24   25 1
  42   24   66 1
  43   24   67 1
  44   25   26 1
  45   25   30 am
  46   26   27 2
  47   26   35 1
  48   27   28 1
  49   28   31 ar
  50   28   29 ar
  51   29   30 1
  52   29   34 ar
  53   30   41 2
  54   31   32 ar
  55   31   68 1
  56   32   33 ar
  57   32   69 1
  58   33   34 ar
  59   33   70 1
  60   34   71 1
  61   35   36 ar
  62   35   40 ar
  63   36   37 ar
  64   36   72 1
  65   37   38 ar
  66   37   73 1
  67   38   39 ar
  68   38   74 1
  69   39   40 ar
  70   39   54 1
  71   40   75 1
  72   42   43 1
  73   42   76 1
  74   42   77 1
  75   43   44 1
  76   43   78 1
  77   43   79 1
  78   44   80 1
  79   44   81 1
  80   45   46 2
  81   45   47 2
  82   45   48 2
  83   45   49 1
  84   50   51 2
  85   50   52 2
  86   50   53 2
  87   50   54 1

#	End of record

