#	Name: ASD00170279
#	Creating user name:	WinNT
#	Creation time:	15. 06. 2019 18:31

#	Modifying user name:	WinNT
#	Modification time:	15. 06. 2019 18:31

#	Program:	/corina/corina34_cracker 3.40 0067  02.08.2006

@<TRIPOS>MOLECULE
ASD00170279
  29   31    0    0    0
SMALL
NO_CHARGES


@<TRIPOS>ATOM
   1 C1            -0.0086     1.3713     0.0070 C.2     
   2 C2             0.0051     0.0011     0.0007 C.2     
   3 C3            -1.3332    -0.5868     0.0142 C.2     
   4 C4            -2.2920     0.3325     0.0300 C.2     
   5 S5            -1.6052     1.9566     0.0353 S.3     
   6 C6             1.2326    -0.7916    -0.0184 C.2     
   7 C7             1.7805    -1.2781    -1.3065 C.ar    
   8 O8             1.8051    -1.0525     1.0239 O.2     
   9 N9             1.1182     2.1668    -0.0023 N.pl3   
  10 N10            1.0987    -1.0810    -2.4280 N.ar    
  11 C11            1.5496    -1.4969    -3.5919 C.ar    
  12 C12            2.7616    -2.1605    -3.6893 C.ar    
  13 C13            3.5066    -2.3875    -2.5421 C.ar    
  14 C14            3.0100    -1.9335    -1.3310 C.ar    
  15 C15           -1.9426    -1.9861     0.0152 C.3     
  16 C16           -3.3984    -1.7844     0.4811 C.3     
  17 C17           -3.6648    -0.3298     0.0441 C.3     
  18 H18            1.9978     1.7626     0.0600 H       
  19 H19            1.0310     3.1304    -0.0712 H       
  20 H20            0.9667    -1.3188    -4.4834 H       
  21 H21            3.1226    -2.4981    -4.6496 H       
  22 H22            4.4545    -2.9025    -2.5921 H       
  23 H23            3.5639    -2.0930    -0.4176 H       
  24 H24           -1.9211    -2.4097    -0.9889 H       
  25 H25           -1.4078    -2.6320     0.7116 H       
  26 H26           -4.0708    -2.4747    -0.0281 H       
  27 H27           -3.4803    -1.8884     1.5631 H       
  28 H28           -4.3185     0.1677     0.7605 H       
  29 H29           -4.1065    -0.3081    -0.9522 H       
@<TRIPOS>BOND
   1    1    2 2
   2    1    9 1
   3    1    5 1
   4    2    3 1
   5    2    6 1
   6    3    4 2
   7    3   15 1
   8    4    5 1
   9    4   17 1
  10    6    7 1
  11    6    8 2
  12    7   10 ar
  13    7   14 ar
  14    9   18 1
  15    9   19 1
  16   10   11 ar
  17   11   12 ar
  18   11   20 1
  19   12   13 ar
  20   12   21 1
  21   13   14 ar
  22   13   22 1
  23   14   23 1
  24   15   16 1
  25   15   24 1
  26   15   25 1
  27   16   17 1
  28   16   26 1
  29   16   27 1
  30   17   28 1
  31   17   29 1

#	End of record

