#	Name: ASD03091219
#	Creating user name:	WinNT
#	Creation time:	15. 06. 2019 20:30

#	Modifying user name:	WinNT
#	Modification time:	15. 06. 2019 20:30

#	Program:	/corina/corina34_cracker 3.40 0067  02.08.2006

@<TRIPOS>MOLECULE
ASD03091219
  61   65    0    0    0
SMALL
NO_CHARGES


@<TRIPOS>ATOM
   1 N1            -0.2479     1.1196     0.2278 N.2     
   2 C2            -0.0596    -0.1645     0.2088 C.2     
   3 N3             1.1637    -0.7389     0.0612 N.am    
   4 C4             2.2716     0.0262    -0.0765 C.2     
   5 C5             2.0927     1.4857    -0.0591 C.ar    
   6 C6             3.1679     2.3612    -0.1926 C.ar    
   7 C7             2.9378     3.7263    -0.1683 C.ar    
   8 C8             1.6430     4.2209    -0.0118 C.ar    
   9 C9             0.5801     3.3739     0.1206 C.ar    
  10 C10            0.7836     1.9923     0.0991 C.ar    
  11 O11            3.3733    -0.4743    -0.2090 O.2     
  12 C12            1.2838    -2.1990     0.0515 C.3     
  13 C13            1.5566    -4.7481     2.9227 C.3     
  14 C14            1.3807    -4.2441     1.4879 C.3     
  15 C15            1.3802    -2.7123     1.4896 C.3     
  16 C16            2.6810    -2.2129     2.1258 C.3     
  17 C17            2.8066    -2.7954     3.5360 C.3     
  18 O18            2.7693    -4.2222     3.4657 O.3     
  19 C19           -1.2587    -1.0650     0.3585 C.3     
  20 C20           -2.5015    -0.2172     0.6371 C.3     
  21 N21            6.4888     5.7322    -1.4719 N.3     
  22 C22            6.4836     4.8267    -0.3129 C.3     
  23 C23            5.2854     3.8918    -0.3669 C.3     
  24 N24            4.0092     4.6139    -0.3010 N.3     
  25 C25            3.8386     5.4729    -1.4811 C.3     
  26 C26            4.3237     6.8841    -1.1851 C.3     
  27 C27            5.8333     7.0005    -1.1218 C.3     
  28 C28            6.0116     5.1772    -2.7203 C.3     
  29 C29            4.5326     4.8310    -2.6685 C.3     
  30 H30            4.1708     1.9791    -0.3135 H       
  31 H31            1.4790     5.2882     0.0052 H       
  32 H32           -0.4166     3.7718     0.2418 H       
  33 H33            0.4078    -2.6324    -0.4311 H       
  34 H34            2.1805    -2.4861    -0.4977 H       
  35 H35            0.7135    -4.4183     3.5297 H       
  36 H36            1.6006    -5.8372     2.9226 H       
  37 H37            2.2026    -4.6073     0.8709 H       
  38 H38            0.4347    -4.6083     1.0873 H       
  39 H39            0.5285    -2.3486     2.0644 H       
  40 H40            3.5291    -2.5351     1.5217 H       
  41 H41            2.6648    -1.1244     2.1814 H       
  42 H42            3.7511    -2.4778     3.9777 H       
  43 H43            1.9798    -2.4401     4.1511 H       
  44 H44           -1.4043    -1.6320    -0.5610 H       
  45 H45           -1.0950    -1.7532     1.1877 H       
  46 H46           -3.3688    -0.8685     0.7454 H       
  47 H47           -2.3559     0.3498     1.5565 H       
  48 H48           -2.6652     0.4710    -0.1922 H       
  49 H49            7.4000     4.2365    -0.3142 H       
  50 H50            6.4382     5.4160     0.6030 H       
  51 H51            5.3222     3.3241    -1.2967 H       
  52 H52            5.3417     3.1970     0.4711 H       
  53 H53            2.7743     5.5221    -1.7112 H       
  54 H54            3.9541     7.5512    -1.9638 H       
  55 H55            3.9082     7.2032    -0.2292 H       
  56 H56            6.1262     7.2853    -0.1113 H       
  57 H57            6.1600     7.7738    -1.8170 H       
  58 H58            6.1770     5.9034    -3.5162 H       
  59 H59            6.5784     4.2738    -2.9452 H       
  60 H60            4.4243     3.7486    -2.5995 H       
  61 H61            4.0557     5.1754    -3.5862 H       
@<TRIPOS>BOND
   1    1    2 2
   2    1   10 1
   3    2    3 1
   4    2   19 1
   5    3    4 am
   6    3   12 1
   7    4    5 1
   8    4   11 2
   9    5    6 ar
  10    5   10 ar
  11    6    7 ar
  12    6   30 1
  13    7    8 ar
  14    7   24 1
  15    8    9 ar
  16    8   31 1
  17    9   10 ar
  18    9   32 1
  19   12   15 1
  20   12   33 1
  21   12   34 1
  22   13   14 1
  23   13   18 1
  24   13   35 1
  25   13   36 1
  26   14   15 1
  27   14   37 1
  28   14   38 1
  29   15   16 1
  30   15   39 1
  31   16   17 1
  32   16   40 1
  33   16   41 1
  34   17   18 1
  35   17   42 1
  36   17   43 1
  37   19   20 1
  38   19   44 1
  39   19   45 1
  40   20   46 1
  41   20   47 1
  42   20   48 1
  43   21   22 1
  44   21   27 1
  45   21   28 1
  46   22   23 1
  47   22   49 1
  48   22   50 1
  49   23   24 1
  50   23   51 1
  51   23   52 1
  52   24   25 1
  53   25   26 1
  54   25   29 1
  55   25   53 1
  56   26   27 1
  57   26   54 1
  58   26   55 1
  59   27   56 1
  60   27   57 1
  61   28   29 1
  62   28   58 1
  63   28   59 1
  64   29   60 1
  65   29   61 1

#	End of record

