#	Name: ASD04500016
#	Creating user name:	WinNT
#	Creation time:	15. 06. 2019 20:49

#	Modifying user name:	WinNT
#	Modification time:	15. 06. 2019 20:49

#	Program:	/corina/corina34_cracker 3.40 0067  02.08.2006

@<TRIPOS>MOLECULE
ASD04500016
  84   90    0    0    0
SMALL
NO_CHARGES


@<TRIPOS>ATOM
   1 C1            -0.0750     2.4560    -2.2731 C.ar    
   2 C2            -0.0352     1.0911    -2.2258 C.ar    
   3 C3             1.1166     0.4228    -1.8312 C.ar    
   4 C4             2.2484     1.1251    -1.4781 C.ar    
   5 C5             2.2303     2.5180    -1.5195 C.ar    
   6 C6             1.0571     3.1969    -1.9209 C.ar    
   7 N7             1.0566     4.5443    -1.9554 N.2     
   8 C8             3.4070     3.3202    -1.1548 C.2     
   9 N9             3.2917     4.6668    -1.2274 N.am    
  10 C10            2.1153     5.2405    -1.6266 C.2     
  11 O11            4.4455     2.7933    -0.8006 O.2     
  12 C12            2.0367     6.7135    -1.6904 C.ar    
  13 C13            1.5757     8.7179    -2.9306 C.ar    
  14 C14            1.6477     7.3434    -2.8752 C.ar    
  15 C15            2.3454     7.4808    -0.5645 C.ar    
  16 C16            2.2709     8.8548    -0.6282 C.ar    
  17 C17            1.8892     9.4777    -1.8102 C.ar    
  18 C18            4.4328     5.5153    -0.8750 C.3     
  19 N19            9.4622     7.8405    -3.7679 N.pl3   
  20 N20            9.9798     6.8974    -4.4746 N.2     
  21 N21           10.6738     7.3940    -5.4371 N.2     
  22 C22           10.6162     8.7287    -5.3687 C.2     
  23 C23            9.8404     9.0257    -4.3001 C.2     
  24 C24           11.2840     9.7089    -6.2984 C.3     
  25 N25           12.6610     9.9414    -5.8556 N.am    
  26 C26           13.6527     9.0790    -6.2369 C.2     
  27 N27           14.9032     9.2258    -5.8790 N.2     
  28 C28           15.3006    10.2516    -5.1001 C.ar    
  29 C29           14.3431    11.1932    -4.6579 C.ar    
  30 C30           12.9454    11.0110    -5.0766 C.2     
  31 C31           16.6371    10.4052    -4.7204 C.ar    
  32 C32           17.0021    11.4671    -3.9242 C.ar    
  33 C33           16.0586    12.3898    -3.4920 C.ar    
  34 C34           14.7355    12.2625    -3.8557 C.ar    
  35 C35           13.2954     7.9290    -7.0912 C.ar    
  36 C36           12.6297     8.1361    -8.3019 C.ar    
  37 C37           12.2981     7.0605    -9.0960 C.ar    
  38 C38           12.6248     5.7710    -8.6945 C.ar    
  39 C39           13.2870     5.5608    -7.4911 C.ar    
  40 C40           13.6272     6.6315    -6.6939 C.ar    
  41 O41           12.0763    11.7907    -4.7326 O.2     
  42 C42            5.3274     5.7022    -2.1020 C.3     
  43 C43            6.5192     6.5884    -1.7340 C.3     
  44 C44            7.4138     6.7753    -2.9610 C.3     
  45 C45            8.6056     7.6615    -2.5930 C.3     
  46 S46            0.4562    11.3970    -1.4884 S.o2    
  47 O47            0.3982    10.8858    -0.1638 O.2     
  48 O48           -0.3107    10.7471    -2.4927 O.2     
  49 O49            0.7622    12.7736    -1.6635 O.2     
  50 O50            1.8173    10.8322    -1.8690 O.3     
  51 S51           13.3680     4.3373   -10.4925 S.o2    
  52 O52           14.4125     4.0532    -9.5718 O.2     
  53 O53           13.4111     5.5711   -11.1961 O.2     
  54 O54           12.6894     3.2442   -11.0956 O.2     
  55 O55           12.2959     4.7136    -9.4799 O.3     
  56 H56           -0.9769     2.9610    -2.5860 H       
  57 H57           -0.9125     0.5235    -2.4989 H       
  58 H58            1.1252    -0.6567    -1.8005 H       
  59 H59            3.1414     0.6007    -1.1716 H       
  60 H60            1.2755     9.2057    -3.8462 H       
  61 H61            1.4043     6.7536    -3.7465 H       
  62 H62            2.6418     6.9974     0.3546 H       
  63 H63            2.5091     9.4487     0.2418 H       
  64 H64            4.0725     6.4867    -0.5366 H       
  65 H65            5.0049     5.0419    -0.0770 H       
  66 H66            9.5760    10.0105    -3.9442 H       
  67 H67           11.2913     9.3031    -7.3100 H       
  68 H68           10.7353    10.6507    -6.2886 H       
  69 H69           17.3799     9.6938    -5.0500 H       
  70 H70           18.0352    11.5839    -3.6317 H       
  71 H71           16.3648    13.2160    -2.8675 H       
  72 H72           14.0079    12.9878    -3.5226 H       
  73 H73           12.3750     9.1380    -8.6145 H       
  74 H74           11.7831     7.2197   -10.0319 H       
  75 H75           13.5392     4.5571    -7.1825 H       
  76 H76           14.1422     6.4673    -5.7588 H       
  77 H77            5.6878     4.7308    -2.4403 H       
  78 H78            4.7554     6.1756    -2.9000 H       
  79 H79            6.1588     7.5598    -1.3956 H       
  80 H80            7.0912     6.1150    -0.9360 H       
  81 H81            7.7742     5.8039    -3.2994 H       
  82 H82            6.8418     7.2487    -3.7590 H       
  83 H83            9.1776     7.1881    -1.7950 H       
  84 H84            8.2452     8.6329    -2.2546 H       
@<TRIPOS>BOND
   1    1    2 ar
   2    1    6 ar
   3    1   56 1
   4    2    3 ar
   5    2   57 1
   6    3    4 ar
   7    3   58 1
   8    4    5 ar
   9    4   59 1
  10    5    6 ar
  11    5    8 1
  12    6    7 1
  13    7   10 2
  14    8    9 am
  15    8   11 2
  16    9   10 1
  17    9   18 1
  18   10   12 1
  19   12   15 ar
  20   12   14 ar
  21   13   14 ar
  22   13   17 ar
  23   13   60 1
  24   14   61 1
  25   15   16 ar
  26   15   62 1
  27   16   17 ar
  28   16   63 1
  29   17   50 1
  30   18   42 1
  31   18   64 1
  32   18   65 1
  33   19   20 1
  34   19   23 1
  35   19   45 1
  36   20   21 2
  37   21   22 1
  38   22   23 2
  39   22   24 1
  40   23   66 1
  41   24   25 1
  42   24   67 1
  43   24   68 1
  44   25   26 1
  45   25   30 am
  46   26   27 2
  47   26   35 1
  48   27   28 1
  49   28   31 ar
  50   28   29 ar
  51   29   30 1
  52   29   34 ar
  53   30   41 2
  54   31   32 ar
  55   31   69 1
  56   32   33 ar
  57   32   70 1
  58   33   34 ar
  59   33   71 1
  60   34   72 1
  61   35   36 ar
  62   35   40 ar
  63   36   37 ar
  64   36   73 1
  65   37   38 ar
  66   37   74 1
  67   38   39 ar
  68   38   55 1
  69   39   40 ar
  70   39   75 1
  71   40   76 1
  72   42   43 1
  73   42   77 1
  74   42   78 1
  75   43   44 1
  76   43   79 1
  77   43   80 1
  78   44   45 1
  79   44   81 1
  80   44   82 1
  81   45   83 1
  82   45   84 1
  83   46   47 2
  84   46   48 2
  85   46   49 2
  86   46   50 1
  87   51   52 2
  88   51   53 2
  89   51   54 2
  90   51   55 1

#	End of record

