#	Name: ASD09530066
#	Creating user name:	WinNT
#	Creation time:	15. 06. 2019 21:22

#	Modifying user name:	WinNT
#	Modification time:	15. 06. 2019 21:22

#	Program:	/corina/corina34_cracker 3.40 0067  02.08.2006

@<TRIPOS>MOLECULE
ASD09530066
  54   57    0    0    0
SMALL
NO_CHARGES


@<TRIPOS>ATOM
   1 C1            -0.0184     1.5028     0.0103 C.2     
   2 C2             0.0021    -0.0041     0.0020 C.3     
   3 O3             1.0236     2.1234     0.0037 O.2     
   4 N4            -1.1946     2.1607     0.0195 N.am    
   5 C5            -1.2145     3.6256     0.0275 C.3     
   6 C6            -1.0888     4.1294     1.4667 C.3     
   7 C7            -2.5117     4.1136    -0.5642 C.ar    
   8 C8            -2.5701     5.3711    -1.1359 C.ar    
   9 C9            -3.7660     5.8125    -1.6782 C.ar    
  10 C10           -4.8687     4.9656    -1.6249 C.ar    
  11 C11           -4.7319     3.7179    -1.0347 C.ar    
  12 N12           -3.5742     3.3336    -0.5345 N.ar    
  13 O13           -6.0630     5.3556    -2.1435 O.3     
  14 C14           -7.1455     4.4276    -2.0487 C.3     
  15 C15           -8.3976     5.0383    -2.6813 C.3     
  16 F16           -8.1469     5.3264    -4.0272 F       
  17 F17           -9.4574     4.1298    -2.5885 F       
  18 F18           -8.7334     6.2170    -2.0067 F       
  19 C19            1.4295    -0.4870    -0.0142 C.ar    
  20 C20            2.0935    -0.7142     1.1780 C.ar    
  21 C21            3.4006    -1.1565     1.1695 C.ar    
  22 C22            4.0521    -1.3743    -0.0440 C.ar    
  23 C23            3.3776    -1.1435    -1.2424 C.ar    
  24 C24            2.0688    -0.7067    -1.2212 C.ar    
  25 C25            7.1843    -3.3707    -0.8314 C.ar    
  26 C26            5.8412    -2.9515    -0.8437 C.ar    
  27 C27            5.4557    -1.8487    -0.0600 C.ar    
  28 C28            6.4388    -1.2162     0.7014 C.ar    
  29 C29            7.7372    -1.6908     0.6574 C.ar    
  30 N30            8.0715    -2.7257    -0.0852 N.ar    
  31 N31            7.2757    -4.4492    -1.6787 N.pl3   
  32 C32            5.1376    -3.8558    -1.7509 C.2     
  33 C33            6.0491    -4.7236    -2.2210 C.2     
  34 H34           -0.4983    -0.3791     0.8948 H       
  35 H35           -0.5153    -0.3696    -0.8850 H       
  36 H36           -2.0280     1.6644     0.0207 H       
  37 H37           -0.3805     4.0035    -0.5638 H       
  38 H38           -1.1036     5.2193     1.4727 H       
  39 H39           -1.9228     3.7515     2.0581 H       
  40 H40           -0.1506     3.7764     1.8947 H       
  41 H41           -1.6938     6.0019    -1.1592 H       
  42 H42           -3.8407     6.7902    -2.1308 H       
  43 H43           -5.5815     3.0527    -0.9881 H       
  44 H44           -6.8839     3.5093    -2.5742 H       
  45 H45           -7.3408     4.2031    -1.0001 H       
  46 H46            1.5880    -0.5448     2.1172 H       
  47 H47            3.9181    -1.3332     2.1008 H       
  48 H48            3.8772    -1.3101    -2.1853 H       
  49 H49            1.5439    -0.5318    -2.1487 H       
  50 H50            6.1889    -0.3654     1.3179 H       
  51 H51            8.4969    -1.1995     1.2472 H       
  52 H52            8.0896    -4.9429    -1.8652 H       
  53 H53            4.0873    -3.8276    -2.0008 H       
  54 H54            5.8438    -5.5216    -2.9192 H       
@<TRIPOS>BOND
   1    1    2 1
   2    1    3 2
   3    1    4 am
   4    2   19 1
   5    2   34 1
   6    2   35 1
   7    4    5 1
   8    4   36 1
   9    5    6 1
  10    5    7 1
  11    5   37 1
  12    6   38 1
  13    6   39 1
  14    6   40 1
  15    7    8 ar
  16    7   12 ar
  17    8    9 ar
  18    8   41 1
  19    9   10 ar
  20    9   42 1
  21   10   11 ar
  22   10   13 1
  23   11   12 ar
  24   11   43 1
  25   13   14 1
  26   14   15 1
  27   14   44 1
  28   14   45 1
  29   15   16 1
  30   15   17 1
  31   15   18 1
  32   19   20 ar
  33   19   24 ar
  34   20   21 ar
  35   20   46 1
  36   21   22 ar
  37   21   47 1
  38   22   23 ar
  39   22   27 1
  40   23   24 ar
  41   23   48 1
  42   24   49 1
  43   25   26 ar
  44   25   30 ar
  45   25   31 1
  46   26   27 ar
  47   26   32 1
  48   27   28 ar
  49   28   29 ar
  50   28   50 1
  51   29   30 ar
  52   29   51 1
  53   31   33 1
  54   31   52 1
  55   32   33 2
  56   32   53 1
  57   33   54 1

#	End of record

