#	Name: ASD03720012
#	Creating user name:	WinNT
#	Creation time:	15. 06. 2019 20:43

#	Modifying user name:	WinNT
#	Modification time:	15. 06. 2019 20:43

#	Program:	/corina/corina34_cracker 3.40 0067  02.08.2006

@<TRIPOS>MOLECULE
ASD03720012
  83   86    0    0    0
SMALL
NO_CHARGES


@<TRIPOS>ATOM
   1 C1             0.0057     1.6811     2.9678 C.3     
   2 C2            -0.3834     0.1771     2.9004 C.3     
   3 C3             1.3335     1.7215     3.6640 C.2     
   4 C4            -1.1872     2.2644     3.7286 C.3     
   5 C5            -1.8463     0.2147     2.4863 C.3     
   6 C6             0.6036    -0.5097     1.9857 C.3     
   7 C7             1.5293     2.4095     4.7888 C.2     
   8 C8             2.4413     0.9204     2.9950 C.3     
   9 C9            -2.3981     1.5384     3.0771 C.3     
  10 C10           -1.9669     0.2223     0.9611 C.3     
  11 C11            1.9715    -0.5003     2.6886 C.3     
  12 C12            2.8486     2.4126     5.4251 C.2     
  13 C13           -3.4210     0.1521     0.5718 C.2     
  14 C14           -1.3522     1.5094     0.4074 C.3     
  15 C15            3.0467     3.1089     6.5634 C.2     
  16 C16           -3.8393    -0.7950    -0.2307 C.2     
  17 C17            1.9584     3.8807     7.1988 C.2     
  18 C18            4.3948     3.1324     7.2559 C.3     
  19 C19           -5.2934    -0.8652    -0.6200 C.3     
  20 C20            1.8367     3.7757     8.7060 C.3     
  21 C21            1.1243     4.6331     6.4813 C.2     
  22 C22            4.1732     2.8883     8.7520 C.3     
  23 C23           -5.4279    -0.6566    -2.1297 C.3     
  24 C24            3.2314     3.9486     9.3160 C.3     
  25 O25            1.3127     2.4938     9.0585 O.3     
  26 O26            5.4263     2.9570     9.4353 O.3     
  27 C27           -0.2697    -0.4349     4.2981 C.3     
  28 O28           -6.0206     0.1543     0.0684 O.3     
  29 C29           -4.8362    -1.7423    -2.9912 C.2     
  30 C30           -4.3272    -2.8354    -2.4279 C.2     
  31 C31           -3.6477    -3.8407    -3.2568 C.2     
  32 O32           -3.1322    -4.9479    -2.6863 O.3     
  33 C33           -2.4750    -5.8978    -3.5661 C.3     
  34 C34           -6.6940     0.0365    -2.6371 C.3     
  35 C35           -5.3556     0.7791    -2.6537 C.3     
  36 O36           -3.5505    -3.6739    -4.4567 O.2     
  37 C37           -1.9577    -7.0804    -2.7446 C.3     
  38 H38            0.0819     2.1085     1.9680 H       
  39 H39           -1.1210     2.0281     4.7906 H       
  40 H40           -1.2542     3.3414     3.5748 H       
  41 H41           -2.3799    -0.6394     2.9034 H       
  42 H42            0.2876    -1.5372     1.8051 H       
  43 H43            0.6695     0.0295     1.0407 H       
  44 H44            0.7152     2.9646     5.2309 H       
  45 H45            2.7284     1.4119     2.0654 H       
  46 H46            3.3046     0.8777     3.6591 H       
  47 H47           -3.1562     1.3248     3.8306 H       
  48 H48           -2.8214     2.1546     2.2838 H       
  49 H49           -1.4389    -0.6384     0.5506 H       
  50 H50            1.8952    -1.0582     3.6219 H       
  51 H51            2.7050    -0.9860     2.0450 H       
  52 H52            3.6627     1.8575     4.9830 H       
  53 H53           -4.1184     0.8827     0.9545 H       
  54 H54           -1.7416     2.3648     0.9595 H       
  55 H55           -0.2683     1.4701     0.5153 H       
  56 H56           -1.6090     1.6102    -0.6472 H       
  57 H57           -3.1419    -1.5255    -0.6134 H       
  58 H58            5.0317     2.3484     6.8463 H       
  59 H59            4.8665     4.1039     7.1083 H       
  60 H60           -5.6948    -1.8423    -0.3511 H       
  61 H61            1.1744     4.5582     9.0763 H       
  62 H62            1.2350     4.6893     5.4084 H       
  63 H63            0.3378     5.1865     6.9727 H       
  64 H64            3.7351     1.9008     8.8970 H       
  65 H65            3.6111     4.9418     9.0763 H       
  66 H66            3.1698     3.8369    10.3985 H       
  67 H67            0.4373     2.3120     8.6901 H       
  68 H68            6.0754     2.3072     9.1327 H       
  69 H69           -1.0193     0.0109     4.9519 H       
  70 H70           -0.4335    -1.5108     4.2380 H       
  71 H71            0.7247    -0.2406     4.7000 H       
  72 H72           -5.7168     1.0520    -0.1238 H       
  73 H73           -4.8251    -1.6334    -4.0656 H       
  74 H74           -4.4136    -2.9837    -1.3616 H       
  75 H75           -3.1862    -6.2559    -4.3104 H       
  76 H76           -1.6389    -5.4103    -4.0675 H       
  77 H77           -7.0988    -0.2926    -3.5942 H       
  78 H78           -7.4312     0.3438    -1.8954 H       
  79 H79           -5.2125     1.5750    -1.9229 H       
  80 H80           -4.8803     0.9383    -3.6216 H       
  81 H81           -1.2465    -6.7223    -2.0003 H       
  82 H82           -2.7938    -7.5679    -2.2432 H       
  83 H83           -1.4644    -7.7934    -3.4051 H       
@<TRIPOS>BOND
   1    1    2 1
   2    1    3 1
   3    1    4 1
   4    1   38 1
   5    2    5 1
   6    2    6 1
   7    2   27 1
   8    3    7 2
   9    3    8 1
  10    4    9 1
  11    4   39 1
  12    4   40 1
  13    5   10 1
  14    5    9 1
  15    5   41 1
  16    6   11 1
  17    6   42 1
  18    6   43 1
  19    7   12 1
  20    7   44 1
  21    8   11 1
  22    8   45 1
  23    8   46 1
  24    9   47 1
  25    9   48 1
  26   10   13 1
  27   10   14 1
  28   10   49 1
  29   11   50 1
  30   11   51 1
  31   12   15 2
  32   12   52 1
  33   13   16 2
  34   13   53 1
  35   14   54 1
  36   14   55 1
  37   14   56 1
  38   15   17 1
  39   15   18 1
  40   16   19 1
  41   16   57 1
  42   17   20 1
  43   17   21 2
  44   18   22 1
  45   18   58 1
  46   18   59 1
  47   19   23 1
  48   19   28 1
  49   19   60 1
  50   20   24 1
  51   20   25 1
  52   20   61 1
  53   21   62 1
  54   21   63 1
  55   22   26 1
  56   22   24 1
  57   22   64 1
  58   23   29 1
  59   23   34 1
  60   23   35 1
  61   24   65 1
  62   24   66 1
  63   25   67 1
  64   26   68 1
  65   27   69 1
  66   27   70 1
  67   27   71 1
  68   28   72 1
  69   29   30 2
  70   29   73 1
  71   30   31 1
  72   30   74 1
  73   31   32 1
  74   31   36 2
  75   32   33 1
  76   33   37 1
  77   33   75 1
  78   33   76 1
  79   34   35 1
  80   34   77 1
  81   34   78 1
  82   35   79 1
  83   35   80 1
  84   37   81 1
  85   37   82 1
  86   37   83 1

#	End of record

