#	Name: ASD05313210
#	Creating user name:	WinNT
#	Creation time:	15. 06. 2019 20:58

#	Modifying user name:	WinNT
#	Modification time:	15. 06. 2019 20:58

#	Program:	/corina/corina34_cracker 3.40 0067  02.08.2006

@<TRIPOS>MOLECULE
ASD05313210
  33   35    0    0    0
SMALL
NO_CHARGES


@<TRIPOS>ATOM
   1 C1            -0.0739     0.8177     1.0270 C.2     
   2 C2             0.1130    -0.6202     0.5980 C.3     
   3 N3             0.9269     1.7298     1.0535 N.pl3   
   4 N4             1.4557    -0.7208    -0.0032 N.am    
   5 C5             2.5695    -0.0397     0.6742 C.3     
   6 C6             2.3150     1.4718     0.6647 C.3     
   7 N7            -1.1709     1.3883     1.4276 N.2     
   8 C8            -0.9164     2.6731     1.7249 C.2     
   9 C9             0.3926     2.9036     1.4978 C.2     
  10 C10            1.6565    -1.4168    -1.1398 C.2     
  11 O11            2.7485    -1.4068    -1.6737 O.2     
  12 C12            0.5491    -2.1920    -1.7369 C.ar    
  13 C13            0.3191    -2.1405    -3.1142 C.ar    
  14 C14           -0.7179    -2.8678    -3.6649 C.ar    
  15 C15           -1.5272    -3.6448    -2.8560 C.ar    
  16 C16           -1.3046    -3.6993    -1.4913 C.ar    
  17 C17           -0.2684    -2.9835    -0.9285 C.ar    
  18 C18           -0.9683    -2.8143    -5.1499 C.3     
  19 F19           -2.0624    -3.6262    -5.4679 F       
  20 F20           -1.2403    -1.4956    -5.5298 F       
  21 F21            0.1651    -3.2715    -5.8308 F       
  22 Cl22           1.3336    -1.1648    -4.1303 Cl      
  23 H23            0.0432    -1.2786     1.4639 H       
  24 H24           -0.6448    -0.8902    -0.1375 H       
  25 H25            2.6391    -0.3908     1.7037 H       
  26 H26            3.5009    -0.2556     0.1508 H       
  27 H27            2.4915     1.8643    -0.3367 H       
  28 H28            2.9873     1.9587     1.3711 H       
  29 H29           -1.6344     3.3950     2.0849 H       
  30 H30            0.9171     3.8365     1.6423 H       
  31 H31           -2.3370    -4.2114    -3.2915 H       
  32 H32           -1.9410    -4.3076    -0.8657 H       
  33 H33           -0.0931    -3.0314     0.1361 H       
@<TRIPOS>BOND
   1    1    2 1
   2    1    3 1
   3    1    7 2
   4    2    4 1
   5    2   23 1
   6    2   24 1
   7    3    6 1
   8    3    9 1
   9    4    5 1
  10    4   10 am
  11    5    6 1
  12    5   25 1
  13    5   26 1
  14    6   27 1
  15    6   28 1
  16    7    8 1
  17    8    9 2
  18    8   29 1
  19    9   30 1
  20   10   11 2
  21   10   12 1
  22   12   13 ar
  23   12   17 ar
  24   13   14 ar
  25   13   22 1
  26   14   15 ar
  27   14   18 1
  28   15   16 ar
  29   15   31 1
  30   16   17 ar
  31   16   32 1
  32   17   33 1
  33   18   19 1
  34   18   20 1
  35   18   21 1

#	End of record

