#	Name: ASD01913855
#	Creating user name:	WinNT
#	Creation time:	15. 06. 2019 20:02

#	Modifying user name:	WinNT
#	Modification time:	15. 06. 2019 20:02

#	Program:	/corina/corina34_cracker 3.40 0067  02.08.2006

@<TRIPOS>MOLECULE
ASD01913855
  41   43    0    0    0
SMALL
NO_CHARGES


@<TRIPOS>ATOM
   1 C1            -0.0195     1.4278    -0.0131 C.ar    
   2 C2             0.0006    -0.0040    -0.0141 C.1     
   3 C3             0.0170    -1.1779    -0.0150 C.1     
   4 C4             0.0370    -2.6098    -0.0160 C.ar    
   5 C5            -1.1524    -3.3387     0.1332 C.ar    
   6 C6             0.1560    -5.3344    -0.0290 C.ar    
   7 N7             1.2610    -4.6185    -0.1731 N.ar    
   8 C8             1.2401    -3.3018    -0.1714 C.ar    
   9 C9            -1.0817    -4.7173     0.1253 C.ar    
  10 C10            1.1711     2.1477    -0.1625 C.ar    
  11 C11            1.1438     3.5292    -0.1610 C.ar    
  12 C12           -1.2403     3.4939     0.1308 C.ar    
  13 C13           -1.2287     2.1129     0.1312 C.ar    
  14 C14           -0.0561     4.2004    -0.0119 C.ar    
  15 N15            0.2331    -6.7253    -0.0385 N.am    
  16 C16            0.1551    -7.3611    -1.2123 C.2     
  17 O17            0.1737    -8.6985    -1.3237 O.3     
  18 C18            0.6535    -9.4540    -0.1773 C.3     
  19 C19           -0.0192    -8.8894     1.0815 C.3     
  20 C20            0.4014    -7.4230     1.2336 C.3     
  21 C21            0.2865   -10.9302    -0.3412 C.3     
  22 C22            2.1720    -9.3080    -0.0612 C.3     
  23 O23            0.0626    -6.6970    -2.2256 O.2     
  24 F24           -2.4085     4.1581     0.2702 F       
  25 F25            2.3443     1.4936    -0.3073 F       
  26 H26           -2.0997    -2.8338     0.2516 H       
  27 H27            2.1618    -2.7520    -0.2916 H       
  28 H28           -1.9772    -5.3105     0.2380 H       
  29 H29            2.0619     4.0862    -0.2761 H       
  30 H30           -2.1520     1.5639     0.2428 H       
  31 H31           -0.0712     5.2802    -0.0111 H       
  32 H32           -1.1025    -8.9556     0.9800 H       
  33 H33            0.3034    -9.4553     1.9554 H       
  34 H34            1.4453    -7.3762     1.5437 H       
  35 H35           -0.2212    -6.9444     1.9894 H       
  36 H36            0.7469   -11.3204    -1.2489 H       
  37 H37            0.6479   -11.4923     0.5200 H       
  38 H38           -0.7967   -11.0298    -0.4115 H       
  39 H39            2.4272    -8.2561     0.0674 H       
  40 H40            2.5269    -9.8757     0.7990 H       
  41 H41            2.6439    -9.6883    -0.9672 H       
@<TRIPOS>BOND
   1    1    2 1
   2    1   10 ar
   3    1   13 ar
   4    2    3 3
   5    3    4 1
   6    4    5 ar
   7    4    8 ar
   8    5    9 ar
   9    5   26 1
  10    6    7 ar
  11    6   15 1
  12    6    9 ar
  13    7    8 ar
  14    8   27 1
  15    9   28 1
  16   10   11 ar
  17   10   25 1
  18   11   14 ar
  19   11   29 1
  20   12   13 ar
  21   12   24 1
  22   12   14 ar
  23   13   30 1
  24   14   31 1
  25   15   16 am
  26   15   20 1
  27   16   17 1
  28   16   23 2
  29   17   18 1
  30   18   19 1
  31   18   21 1
  32   18   22 1
  33   19   20 1
  34   19   32 1
  35   19   33 1
  36   20   34 1
  37   20   35 1
  38   21   36 1
  39   21   37 1
  40   21   38 1
  41   22   39 1
  42   22   40 1
  43   22   41 1

#	End of record

