#	Name: ASD02508239
#	Creating user name:	WinNT
#	Creation time:	15. 06. 2019 20:24

#	Modifying user name:	WinNT
#	Modification time:	15. 06. 2019 20:24

#	Program:	/corina/corina34_cracker 3.40 0067  02.08.2006

@<TRIPOS>MOLECULE
ASD02508239
  39   41    0    0    0
SMALL
NO_CHARGES


@<TRIPOS>ATOM
   1 C1            -0.0168     1.3904     0.0097 C.ar    
   2 C2             0.0021    -0.0041     0.0020 C.ar    
   3 C3            -1.1922    -0.7077     0.0096 C.ar    
   4 C4            -2.3933    -0.0260     0.0248 C.ar    
   5 C5            -2.4110     1.3580     0.0319 C.ar    
   6 C6            -1.2261     2.0677     0.0299 C.ar    
   7 S7            -3.9102    -0.9224     0.0344 S.o2    
   8 N8            -4.3171    -1.1803     1.6188 N.am    
   9 C9            -4.6396    -0.0448     2.4864 C.3     
  10 N10            1.3140     1.8071    -0.0008 N.am    
  11 C11            2.0846     0.7014    -0.0141 C.2     
  12 O12            1.3018    -0.3890    -0.0125 O.3     
  13 O13           -4.8966    -0.0478    -0.4959 O.2     
  14 O14           -3.6251    -2.1995    -0.5196 O.2     
  15 C15            1.7879     3.1933     0.0021 C.3     
  16 O16            3.3005     0.6929    -0.0257 O.2     
  17 C17           -5.7336    -0.4529     3.4752 C.3     
  18 C18           -3.3880     0.3797     3.2573 C.3     
  19 C19           -3.7247     1.5656     4.1634 C.3     
  20 C20           -4.8187     1.1575     5.1521 C.3     
  21 C21           -6.0703     0.7330     4.3813 C.3     
  22 H22           -1.1834    -1.7877     0.0034 H       
  23 H23           -3.3540     1.8844     0.0430 H       
  24 H24           -1.2417     3.1476     0.0359 H       
  25 H25           -4.3419    -2.0832     1.9724 H       
  26 H26           -4.9918     0.7885     1.8784 H       
  27 H27            1.9152     3.5316     1.0305 H       
  28 H28            2.7426     3.2521    -0.5205 H       
  29 H29            1.0584     3.8277    -0.5014 H       
  30 H30           -6.6252    -0.7553     2.9260 H       
  31 H31           -5.3813    -1.2862     4.0832 H       
  32 H32           -3.0357    -0.4536     3.8653 H       
  33 H33           -2.6086     0.6704     2.5529 H       
  34 H34           -2.8331     1.8680     4.7126 H       
  35 H35           -4.0770     2.3989     3.5554 H       
  36 H36           -4.4665     0.3242     5.7601 H       
  37 H37           -5.0586     2.0023     5.7977 H       
  38 H38           -6.4226     1.5663     3.7733 H       
  39 H39           -6.8497     0.4423     5.0856 H       
@<TRIPOS>BOND
   1    1    2 ar
   2    1   10 1
   3    1    6 ar
   4    2    3 ar
   5    2   12 1
   6    3    4 ar
   7    3   22 1
   8    4    5 ar
   9    4    7 1
  10    5    6 ar
  11    5   23 1
  12    6   24 1
  13    7    8 am
  14    7   13 2
  15    7   14 2
  16    8    9 1
  17    8   25 1
  18    9   17 1
  19    9   18 1
  20    9   26 1
  21   10   11 am
  22   10   15 1
  23   11   12 1
  24   11   16 2
  25   15   27 1
  26   15   28 1
  27   15   29 1
  28   17   21 1
  29   17   30 1
  30   17   31 1
  31   18   19 1
  32   18   32 1
  33   18   33 1
  34   19   20 1
  35   19   34 1
  36   19   35 1
  37   20   21 1
  38   20   36 1
  39   20   37 1
  40   21   38 1
  41   21   39 1

#	End of record

