#	Name: ASD09740518
#	Creating user name:	WinNT
#	Creation time:	15. 06. 2019 21:23

#	Modifying user name:	WinNT
#	Modification time:	15. 06. 2019 21:23

#	Program:	/corina/corina34_cracker 3.40 0067  02.08.2006

@<TRIPOS>MOLECULE
ASD09740518
  56   59    0    0    0
SMALL
NO_CHARGES


@<TRIPOS>ATOM
   1 C1             0.1526     1.4472    -1.2553 C.2     
   2 C2             0.1911     0.0817    -1.4091 C.2     
   3 C3             1.3162     2.0070    -0.8605 C.2     
   4 S4             2.5376     0.7564    -0.6678 S.3     
   5 C5             1.3865    -0.4860    -1.1414 C.2     
   6 C6             1.5308     3.4502    -0.6266 C.ar    
   7 C7             2.7803     3.9115    -0.2195 C.ar    
   8 C8             0.4813     4.3534    -0.8195 C.ar    
   9 C9             0.6762     5.7008    -0.6032 C.ar    
  10 C10            1.9150     6.1708    -0.1925 C.ar    
  11 C11            2.9770     5.2744    -0.0008 C.ar    
  12 O12            2.1012     7.4983     0.0185 O.3     
  13 C13            0.9504     8.3392    -0.0840 C.3     
  14 C14            1.1661     9.6030     0.7509 C.3     
  15 C15            0.7303     8.7263    -1.5477 C.3     
  16 C16            4.2568     5.7568     0.4237 C.1     
  17 N17            5.2720     6.1394     0.7604 N.1     
  18 C18            1.6822    -1.9306    -1.2319 C.ar    
  19 C19            2.8046    -2.3725    -1.9391 C.ar    
  20 C20            3.0750    -3.7229    -2.0199 C.ar    
  21 C21            2.2347    -4.6350    -1.4005 C.ar    
  22 C22            1.1236    -4.2033    -0.6999 C.ar    
  23 C23            0.8450    -2.8557    -0.6070 C.ar    
  24 C24            3.8605    -1.5915    -2.6912 C.3     
  25 C25            5.0383    -2.5732    -2.8690 C.3     
  26 C26            4.3327    -3.9454    -2.8329 C.3     
  27 N27            5.1913    -4.9431    -2.1808 N.3     
  28 C28            4.8585    -6.3005    -2.6333 C.3     
  29 C29            5.7716    -7.3095    -1.9339 C.3     
  30 O30            5.5027    -7.3023    -0.5305 O.3     
  31 H31           -0.7388     2.0283    -1.4405 H       
  32 H32           -0.6689    -0.4929    -1.7200 H       
  33 H33            3.5936     3.2162    -0.0734 H       
  34 H34           -0.4856     3.9942    -1.1395 H       
  35 H35           -0.1387     6.3933    -0.7544 H       
  36 H36            0.0755     7.8044     0.2859 H       
  37 H37            2.0410    10.1378     0.3811 H       
  38 H38            0.2883    10.2444     0.6727 H       
  39 H39            1.3229     9.3272     1.7937 H       
  40 H40            1.6051     9.2611    -1.9176 H       
  41 H41            0.5766     7.8259    -2.1425 H       
  42 H42           -0.1475     9.3677    -1.6259 H       
  43 H43            2.4494    -5.6914    -1.4660 H       
  44 H44            0.4750    -4.9222    -0.2214 H       
  45 H45           -0.0228    -2.5182    -0.0598 H       
  46 H46            3.4790    -1.2785    -3.6631 H       
  47 H47            4.1751    -0.7244    -2.1103 H       
  48 H48            5.5322    -2.4164    -3.8279 H       
  49 H49            5.7477    -2.4804    -2.0466 H       
  50 H50            4.0782    -4.2666    -3.8429 H       
  51 H51            6.1668    -4.7387    -2.3379 H       
  52 H52            3.8193    -6.5204    -2.3887 H       
  53 H53            5.0002    -6.3689    -3.7119 H       
  54 H54            5.5858    -8.3061    -2.3344 H       
  55 H55            6.8129    -7.0372    -2.1058 H       
  56 H56            6.0467    -7.9198    -0.0227 H       
@<TRIPOS>BOND
   1    1    2 1
   2    1    3 2
   3    1   31 1
   4    2    5 2
   5    2   32 1
   6    3    4 1
   7    3    6 1
   8    4    5 1
   9    5   18 1
  10    6    7 ar
  11    6    8 ar
  12    7   11 ar
  13    7   33 1
  14    8    9 ar
  15    8   34 1
  16    9   10 ar
  17    9   35 1
  18   10   11 ar
  19   10   12 1
  20   11   16 1
  21   12   13 1
  22   13   14 1
  23   13   15 1
  24   13   36 1
  25   14   37 1
  26   14   38 1
  27   14   39 1
  28   15   40 1
  29   15   41 1
  30   15   42 1
  31   16   17 3
  32   18   19 ar
  33   18   23 ar
  34   19   20 ar
  35   19   24 1
  36   20   21 ar
  37   20   26 1
  38   21   22 ar
  39   21   43 1
  40   22   23 ar
  41   22   44 1
  42   23   45 1
  43   24   25 1
  44   24   46 1
  45   24   47 1
  46   25   26 1
  47   25   48 1
  48   25   49 1
  49   26   27 1
  50   26   50 1
  51   27   28 1
  52   27   51 1
  53   28   29 1
  54   28   52 1
  55   28   53 1
  56   29   30 1
  57   29   54 1
  58   29   55 1
  59   30   56 1

#	End of record

