#	Name: ASD00170375
#	Creating user name:	WinNT
#	Creation time:	15. 06. 2019 18:32

#	Modifying user name:	WinNT
#	Modification time:	15. 06. 2019 18:32

#	Program:	/corina/corina34_cracker 3.40 0067  02.08.2006

@<TRIPOS>MOLECULE
ASD00170375
  51   54    0    0    0
SMALL
NO_CHARGES


@<TRIPOS>ATOM
   1 C1            -0.0108     1.3384    -0.1034 C.2     
   2 C2             0.0145     0.0005    -0.1307 C.2     
   3 C3            -1.3042    -0.5834     0.0237 C.2     
   4 C4            -2.2968     0.3543     0.1641 C.2     
   5 S5            -1.6480     1.9282     0.1175 S.3     
   6 C6            -1.5513    -2.0250     0.0288 C.2     
   7 C7            -1.5545    -2.7702     1.3061 C.ar    
   8 O8            -1.7545    -2.6117    -1.0188 O.2     
   9 C9            -1.8835    -4.1268     1.3252 C.ar    
  10 C10           -1.8848    -4.8164     2.5194 C.ar    
  11 C11           -1.5609    -4.1656     3.6984 C.ar    
  12 C12           -1.2337    -2.8198     3.6857 C.ar    
  13 C13           -1.2229    -2.1212     2.4968 C.ar    
  14 N14           -3.6358     0.0617     0.3259 N.pl3   
  15 C15            1.2256     2.2053    -0.2409 C.3     
  16 N16            2.4125     1.3702    -0.0041 N.3     
  17 C17            2.3788     0.1595    -0.8370 C.3     
  18 C18            1.3010    -0.7913    -0.3070 C.3     
  19 C19            3.6469     2.1327    -0.2334 C.3     
  20 C20            3.7652     3.2393     0.8165 C.3     
  21 C21            5.0510     4.0336     0.5776 C.3     
  22 C22            5.1675     5.1236     1.6117 C.ar    
  23 Cl23          -1.5658    -5.0401     5.1981 Cl      
  24 C24            5.8166     4.8760     2.8068 C.ar    
  25 C25            5.9234     5.8758     3.7554 C.ar    
  26 C26            5.3816     7.1234     3.5087 C.ar    
  27 C27            4.7333     7.3712     2.3132 C.ar    
  28 C28            4.6303     6.3727     1.3629 C.ar    
  29 H29           -2.1369    -4.6351     0.4066 H       
  30 H30           -2.1392    -5.8659     2.5354 H       
  31 H31           -0.9820    -2.3176     4.6082 H       
  32 H32           -0.9672    -1.0719     2.4881 H       
  33 H33           -3.9421    -0.8567     0.2669 H       
  34 H34           -4.2705     0.7746     0.4986 H       
  35 H35            1.2682     2.6252    -1.2458 H       
  36 H36            1.1919     3.0099     0.4937 H       
  37 H37            2.1477     0.4326    -1.8667 H       
  38 H38            3.3498    -0.3344    -0.8004 H       
  39 H39            1.6133    -1.2027     0.6529 H       
  40 H40            1.1411    -1.6001    -1.0199 H       
  41 H41            4.5056     1.4657    -0.1566 H       
  42 H42            3.6200     2.5771    -1.2283 H       
  43 H43            2.9066     3.9064     0.7396 H       
  44 H44            3.7922     2.7949     1.8114 H       
  45 H45            5.9096     3.3665     0.6545 H       
  46 H46            5.0240     4.4780    -0.4173 H       
  47 H47            6.2399     3.9013     2.9996 H       
  48 H48            6.4299     5.6821     4.6894 H       
  49 H49            5.4645     7.9043     4.2501 H       
  50 H50            4.3097     8.3458     2.1206 H       
  51 H51            4.1238     6.5663     0.4289 H       
@<TRIPOS>BOND
   1    1    2 2
   2    1   15 1
   3    1    5 1
   4    2    3 1
   5    2   18 1
   6    3    4 2
   7    3    6 1
   8    4    5 1
   9    4   14 1
  10    6    7 1
  11    6    8 2
  12    7    9 ar
  13    7   13 ar
  14    9   10 ar
  15    9   29 1
  16   10   11 ar
  17   10   30 1
  18   11   12 ar
  19   11   23 1
  20   12   13 ar
  21   12   31 1
  22   13   32 1
  23   14   33 1
  24   14   34 1
  25   15   16 1
  26   15   35 1
  27   15   36 1
  28   16   17 1
  29   16   19 1
  30   17   18 1
  31   17   37 1
  32   17   38 1
  33   18   39 1
  34   18   40 1
  35   19   20 1
  36   19   41 1
  37   19   42 1
  38   20   21 1
  39   20   43 1
  40   20   44 1
  41   21   22 1
  42   21   45 1
  43   21   46 1
  44   22   24 ar
  45   22   28 ar
  46   24   25 ar
  47   24   47 1
  48   25   26 ar
  49   25   48 1
  50   26   27 ar
  51   26   49 1
  52   27   28 ar
  53   27   50 1
  54   28   51 1

#	End of record

