#	Name: ASD00842003
#	Creating user name:	WinNT
#	Creation time:	15. 06. 2019 18:43

#	Modifying user name:	WinNT
#	Modification time:	15. 06. 2019 18:43

#	Program:	/corina/corina34_cracker 3.40 0067  02.08.2006

@<TRIPOS>MOLECULE
ASD00842003
 102  107    0    0    0
SMALL
NO_CHARGES


@<TRIPOS>ATOM
   1 C1             0.8816     1.5117    -0.7026 C.ar    
   2 C2             1.2156     0.1729    -0.8446 C.ar    
   3 C3             1.1977    -0.6652     0.2611 C.ar    
   4 C4             0.8474    -0.1648     1.4999 C.ar    
   5 C5             0.5143     1.1702     1.6387 C.ar    
   6 C6             0.5319     2.0074     0.5387 C.ar    
   7 C7             1.5596    -2.1203     0.1103 C.3     
   8 C8             1.3458    -2.8582     1.4148 C.2     
   9 C9             0.7388    -2.7624    -1.0099 C.3     
  10 C10           -0.7282    -2.5331    -0.7525 C.2     
  11 N11           -1.6491    -3.0700    -1.5773 N.am    
  12 O12           -1.0802    -1.8655     0.1969 O.2     
  13 C13           -3.0754    -2.7595    -1.4101 C.3     
  14 C14           -3.8568    -4.0729    -1.3040 C.3     
  15 C15           -3.5423    -4.9485    -2.5191 C.3     
  16 C16           -2.0476    -5.2761    -2.5408 C.3     
  17 C17           -1.2452    -3.9719    -2.6644 C.3     
  18 N18           -4.3154    -6.1949    -2.4374 N.3     
  19 C19           -4.1301    -7.0098    -3.6462 C.3     
  20 C20           -4.8859    -8.3313    -3.4882 C.3     
  21 N21           -6.3103    -8.0533    -3.2572 N.3     
  22 C22           -6.4957    -7.2384    -2.0484 C.3     
  23 C23           -5.7399    -5.9170    -2.2065 C.3     
  24 C24           -7.0834    -9.2998    -3.1755 C.3     
  25 O25            0.2938    -2.9892     2.0038 O.2     
  26 N26            2.5394    -3.3414     1.7971 N.am    
  27 C27            3.0395    -2.2732    -0.1586 C.ar    
  28 C28            3.5537    -3.0182     0.9000 C.ar    
  29 C29            3.8506    -1.8351    -1.1744 C.ar    
  30 C30            5.2169    -2.1372    -1.1538 C.ar    
  31 C31            5.7409    -2.8857    -0.0928 C.ar    
  32 C32            4.9151    -3.3213     0.9213 C.ar    
  33 F33            7.0585    -3.1827    -0.0636 F       
  34 C34            2.5515    -5.9185     2.7628 C.ar    
  35 C35            1.3056    -6.3717     2.3535 C.ar    
  36 C36            3.6166    -6.7959     2.8385 C.ar    
  37 C37            3.4439    -8.1258     2.5065 C.ar    
  38 C38            2.1996    -8.5840     2.0965 C.ar    
  39 C39            1.1297    -7.7061     2.0202 C.ar    
  40 O40            2.0303    -9.8924     1.7706 O.3     
  41 O41            0.2585    -5.5086     2.2797 O.3     
  42 C42            3.1762   -10.7400     1.8729 C.3     
  43 C43           -0.9948    -6.0443     1.8505 C.3     
  44 C44           -2.0449    -4.9317     1.8302 C.3     
  45 C45           -8.5011    -8.9897    -2.6910 C.3     
  46 C46           -9.3063   -10.2879    -2.6058 C.3     
  47 S47            2.7776    -4.2215     3.1795 S.o2    
  48 O48            4.1491    -4.0712     3.5196 O.2     
  49 O49            1.7164    -3.8798     4.0605 O.2     
  50 O50            1.5595    -0.3171    -2.0646 O.3     
  51 C51            1.9713    -0.1168    -4.4376 C.3     
  52 C52            1.4479     0.5736    -3.1765 C.3     
  53 C53            6.0722    -1.6850    -2.2095 C.1     
  54 N54            6.7506    -1.3262    -3.0471 N.1     
  55 H55            0.8991     2.1670    -1.5609 H       
  56 H56            0.8333    -0.8168     2.3608 H       
  57 H57            0.2400     1.5593     2.6081 H       
  58 H58            0.2713     3.0496     0.6497 H       
  59 H59            1.0144    -2.3148    -1.9647 H       
  60 H60            0.9395    -3.8334    -1.0393 H       
  61 H61           -3.2181    -2.1750    -0.5012 H       
  62 H62           -3.4293    -2.1923    -2.2711 H       
  63 H63           -3.5662    -4.5965    -0.3933 H       
  64 H64           -4.9253    -3.8593    -1.2762 H       
  65 H65           -3.8103    -4.4143    -3.4307 H       
  66 H66           -1.7740    -5.7884    -1.6184 H       
  67 H67           -1.8284    -5.9189    -3.3934 H       
  68 H68           -1.4509    -3.5063    -3.6282 H       
  69 H69           -0.1802    -4.1888    -2.5810 H       
  70 H70           -4.5169    -6.4708    -4.5110 H       
  71 H71           -3.0687    -7.2128    -3.7887 H       
  72 H72           -4.7737    -8.9251    -4.3953 H       
  73 H73           -4.4807    -8.8827    -2.6398 H       
  74 H74           -7.5571    -7.0355    -1.9059 H       
  75 H75           -6.1088    -7.7775    -1.1836 H       
  76 H76           -5.8521    -5.3231    -1.2993 H       
  77 H77           -6.1450    -5.3655    -3.0549 H       
  78 H78           -7.1295    -9.7640    -4.1607 H       
  79 H79           -6.6009    -9.9813    -2.4749 H       
  80 H80            3.4358    -1.2587    -1.9882 H       
  81 H81            5.3245    -3.8984     1.7373 H       
  82 H82            4.5856    -6.4412     3.1573 H       
  83 H83            4.2780    -8.8094     2.5658 H       
  84 H84            0.1606    -8.0608     1.7017 H       
  85 H85            3.9603   -10.3724     1.2110 H       
  86 H86            3.5384   -10.7388     2.9009 H       
  87 H87            2.9040   -11.7554     1.5848 H       
  88 H88           -0.8880    -6.4614     0.8492 H       
  89 H89           -1.3097    -6.8285     2.5391 H       
  90 H90           -2.1518    -4.5146     2.8315 H       
  91 H91           -1.7301    -4.1476     1.1416 H       
  92 H92           -3.0009    -5.3404     1.5028 H       
  93 H93           -8.4550    -8.5255    -1.7058 H       
  94 H94           -8.9836    -8.3082    -3.3915 H       
  95 H95           -8.8238   -10.9695    -1.9053 H       
  96 H96          -10.3163   -10.0670    -2.2606 H       
  97 H97           -9.3524   -10.7521    -3.5910 H       
  98 H98            2.9884    -0.4682    -4.2639 H       
  99 H99            1.3306    -0.9645    -4.6803 H       
 100 H100           1.9679     0.5904    -5.2670 H       
 101 H101           0.4025     0.8472    -3.3194 H       
 102 H102           2.0352     1.4712    -2.9833 H       
@<TRIPOS>BOND
   1    1    2 ar
   2    1    6 ar
   3    1   55 1
   4    2    3 ar
   5    2   50 1
   6    3    4 ar
   7    3    7 1
   8    4    5 ar
   9    4   56 1
  10    5    6 ar
  11    5   57 1
  12    6   58 1
  13    7    8 1
  14    7    9 1
  15    7   27 1
  16    8   25 2
  17    8   26 am
  18    9   10 1
  19    9   59 1
  20    9   60 1
  21   10   11 am
  22   10   12 2
  23   11   13 1
  24   11   17 1
  25   13   14 1
  26   13   61 1
  27   13   62 1
  28   14   15 1
  29   14   63 1
  30   14   64 1
  31   15   16 1
  32   15   18 1
  33   15   65 1
  34   16   17 1
  35   16   66 1
  36   16   67 1
  37   17   68 1
  38   17   69 1
  39   18   19 1
  40   18   23 1
  41   19   20 1
  42   19   70 1
  43   19   71 1
  44   20   21 1
  45   20   72 1
  46   20   73 1
  47   21   22 1
  48   21   24 1
  49   22   23 1
  50   22   74 1
  51   22   75 1
  52   23   76 1
  53   23   77 1
  54   24   45 1
  55   24   78 1
  56   24   79 1
  57   26   47 am
  58   26   28 1
  59   27   28 ar
  60   27   29 ar
  61   28   32 ar
  62   29   30 ar
  63   29   80 1
  64   30   31 ar
  65   30   53 1
  66   31   32 ar
  67   31   33 1
  68   32   81 1
  69   34   35 ar
  70   34   36 ar
  71   34   47 1
  72   35   41 1
  73   35   39 ar
  74   36   37 ar
  75   36   82 1
  76   37   38 ar
  77   37   83 1
  78   38   39 ar
  79   38   40 1
  80   39   84 1
  81   40   42 1
  82   41   43 1
  83   42   85 1
  84   42   86 1
  85   42   87 1
  86   43   44 1
  87   43   88 1
  88   43   89 1
  89   44   90 1
  90   44   91 1
  91   44   92 1
  92   45   46 1
  93   45   93 1
  94   45   94 1
  95   46   95 1
  96   46   96 1
  97   46   97 1
  98   47   48 2
  99   47   49 2
 100   50   52 1
 101   51   52 1
 102   51   98 1
 103   51   99 1
 104   51  100 1
 105   52  101 1
 106   52  102 1
 107   53   54 3

#	End of record

