#	Name: ASD03731698
#	Creating user name:	WinNT
#	Creation time:	15. 06. 2019 20:46

#	Modifying user name:	WinNT
#	Modification time:	15. 06. 2019 20:46

#	Program:	/corina/corina34_cracker 3.40 0067  02.08.2006

@<TRIPOS>MOLECULE
ASD03731698
  42   43    0    0    0
SMALL
NO_CHARGES


@<TRIPOS>ATOM
   1 C1            -0.4039     1.1042    -1.9610 C.2     
   2 C2            -0.2823    -0.2738    -1.4505 C.ar    
   3 C3             0.9015    -0.9940    -1.6489 C.ar    
   4 C4             1.0105    -2.2838    -1.1691 C.ar    
   5 C5            -0.0518    -2.8663    -0.4910 C.ar    
   6 C6            -1.2312    -2.1531    -0.2916 C.ar    
   7 C7            -1.3470    -0.8630    -0.7619 C.ar    
   8 O8             0.5251     1.6166    -2.5553 O.2     
   9 N9            -1.5466     1.7938    -1.7737 N.am    
  10 S10           -1.6831     3.3414    -2.3469 S.o2    
  11 O11           -2.9854     3.7486    -1.9498 O.2     
  12 O12           -0.5263     4.0018    -1.8521 O.2     
  13 C13           -1.5933     3.1657    -4.1502 C.3     
  14 O14            0.0593    -4.1350    -0.0213 O.3     
  15 C15            1.2617    -4.7565    -0.1411 C.ar    
  16 C16            2.2133    -4.6281     0.8605 C.ar    
  17 C17            3.4347    -5.2614     0.7364 C.ar    
  18 C18            3.7095    -6.0224    -0.3849 C.ar    
  19 C19            2.7629    -6.1520    -1.3844 C.ar    
  20 C20            1.5378    -5.5255    -1.2627 C.ar    
  21 C21            5.0431    -6.7114    -0.5180 C.3     
  22 C22            4.8279    -8.2220    -0.6301 C.3     
  23 C23            5.7566    -6.2034    -1.7725 C.3     
  24 F24           -2.2617    -2.7252     0.3686 F       
  25 F25            1.9355    -0.4280    -2.3091 F       
  26 H26            1.9231    -2.8407    -1.3218 H       
  27 H27           -2.2604    -0.3092    -0.6024 H       
  28 H28           -2.2890     1.3836    -1.3031 H       
  29 H29           -2.4097     2.5307    -4.4945 H       
  30 H30           -1.6760     4.1479    -4.6155 H       
  31 H31           -0.6404     2.7129    -4.4241 H       
  32 H32            1.9995    -4.0332     1.7361 H       
  33 H33            4.1758    -5.1617     1.5157 H       
  34 H34            2.9802    -6.7468    -2.2594 H       
  35 H35            0.7973    -5.6304    -2.0418 H       
  36 H36            5.6528    -6.4954     0.3593 H       
  37 H37            4.2182    -8.4380    -1.5074 H       
  38 H38            5.7925    -8.7203    -0.7263 H       
  39 H39            4.3196    -8.5839     0.2637 H       
  40 H40            5.9100    -5.1272    -1.6927 H       
  41 H41            6.7212    -6.7017    -1.8688 H       
  42 H42            5.1469    -6.4194    -2.6498 H       
@<TRIPOS>BOND
   1    1    2 1
   2    1    8 2
   3    1    9 am
   4    2    3 ar
   5    2    7 ar
   6    3    4 ar
   7    3   25 1
   8    4    5 ar
   9    4   26 1
  10    5    6 ar
  11    5   14 1
  12    6    7 ar
  13    6   24 1
  14    7   27 1
  15    9   10 am
  16    9   28 1
  17   10   11 2
  18   10   12 2
  19   10   13 1
  20   13   29 1
  21   13   30 1
  22   13   31 1
  23   14   15 1
  24   15   16 ar
  25   15   20 ar
  26   16   17 ar
  27   16   32 1
  28   17   18 ar
  29   17   33 1
  30   18   19 ar
  31   18   21 1
  32   19   20 ar
  33   19   34 1
  34   20   35 1
  35   21   22 1
  36   21   23 1
  37   21   36 1
  38   22   37 1
  39   22   38 1
  40   22   39 1
  41   23   40 1
  42   23   41 1
  43   23   42 1

#	End of record

