#	Name: ASD03950095
#	Creating user name:	WinNT
#	Creation time:	15. 06. 2019 20:48

#	Modifying user name:	WinNT
#	Modification time:	15. 06. 2019 20:48

#	Program:	/corina/corina34_cracker 3.40 0067  02.08.2006

@<TRIPOS>MOLECULE
ASD03950095
  41   44    0    0    0
SMALL
NO_CHARGES


@<TRIPOS>ATOM
   1 N1            -0.0169     1.3942     0.0097 N.pl3   
   2 N2             0.0021    -0.0041     0.0020 N.2     
   3 C3             1.2311    -0.4341    -0.0120 C.2     
   4 C4             2.1096     0.7332    -0.0141 C.ar    
   5 C5             3.4970     0.8980    -0.0268 C.ar    
   6 C6             4.0426     2.1763    -0.0256 C.ar    
   7 C7             3.2107     3.2996    -0.0117 C.ar    
   8 C8             1.8299     3.1505     0.0011 C.ar    
   9 C9             1.2669     1.8606    -0.0000 C.ar    
  10 C10            0.9567     4.3395     0.0153 C.2     
  11 O11           -0.2519     4.2062     0.0265 O.2     
  12 N12            1.4986     5.5736     0.0159 N.am    
  13 C13            5.5116     2.3490    -0.0386 C.2     
  14 C14            6.1558     3.5324    -0.0388 C.2     
  15 C15            7.5328     3.4395    -0.0514 C.2     
  16 C16            8.0158     2.1942    -0.0615 C.2     
  17 S17            6.6878     1.0413    -0.0486 S.3     
  18 N18            0.9733    -4.6790    -0.0274 N.3     
  19 C19            1.5336    -4.0594     1.1804 C.3     
  20 C20            1.1381    -2.5818     1.2277 C.3     
  21 C21            1.6685    -1.8762    -0.0235 C.3     
  22 C22            1.1085    -2.5709    -1.2678 C.3     
  23 C23            1.5047    -4.0489    -1.2427 C.3     
  24 H24           -0.8150     1.9454     0.0166 H       
  25 H25            4.1443     0.0335    -0.0373 H       
  26 H26            3.6441     4.2889    -0.0105 H       
  27 H27            2.4627     5.6799     0.0070 H       
  28 H28            0.9245     6.3554     0.0252 H       
  29 H29            5.6358     4.4789    -0.0300 H       
  30 H30            8.1727     4.3095    -0.0533 H       
  31 H31            9.0640     1.9343    -0.0721 H       
  32 H32            1.1396    -5.6741    -0.0337 H       
  33 H33            1.1451    -4.5678     2.0629 H       
  34 H34            2.6201    -4.1442     1.1614 H       
  35 H35            0.0520    -2.4966     1.2606 H       
  36 H36            1.5671    -2.1185     2.1162 H       
  37 H37            2.7573    -1.9265    -0.0361 H       
  38 H38            0.0218    -2.4856    -1.2741 H       
  39 H39            1.5163    -2.0999    -2.1621 H       
  40 H40            2.5914    -4.1337    -1.2503 H       
  41 H41            1.0954    -4.5496    -2.1201 H       
@<TRIPOS>BOND
   1    1    2 1
   2    1    9 1
   3    1   24 1
   4    2    3 2
   5    3    4 1
   6    3   21 1
   7    4    5 ar
   8    4    9 ar
   9    5    6 ar
  10    5   25 1
  11    6    7 ar
  12    6   13 1
  13    7    8 ar
  14    7   26 1
  15    8    9 ar
  16    8   10 1
  17   10   11 2
  18   10   12 am
  19   12   27 1
  20   12   28 1
  21   13   14 2
  22   13   17 1
  23   14   15 1
  24   14   29 1
  25   15   16 2
  26   15   30 1
  27   16   17 1
  28   16   31 1
  29   18   19 1
  30   18   23 1
  31   18   32 1
  32   19   20 1
  33   19   33 1
  34   19   34 1
  35   20   21 1
  36   20   35 1
  37   20   36 1
  38   21   22 1
  39   21   37 1
  40   22   23 1
  41   22   38 1
  42   22   39 1
  43   23   40 1
  44   23   41 1

#	End of record

