#	Name: ASD01880074
#	Creating user name:	WinNT
#	Creation time:	15. 06. 2019 19:39

#	Modifying user name:	WinNT
#	Modification time:	15. 06. 2019 19:39

#	Program:	/corina/corina34_cracker 3.40 0067  02.08.2006

@<TRIPOS>MOLECULE
ASD01880074
  49   51    0    0    0
SMALL
NO_CHARGES


@<TRIPOS>ATOM
   1 C1            -0.0167     1.3776     0.0096 C.ar    
   2 C2             0.0021    -0.0041     0.0020 C.ar    
   3 N3             1.1443    -0.6632    -0.0120 N.ar    
   4 C4             2.3054    -0.0383    -0.0197 C.ar    
   5 C5             2.3651     1.3426    -0.0133 C.ar    
   6 C6             1.1850     2.0698     0.0019 C.ar    
   7 C7             3.6964     2.0488    -0.0217 C.3     
   8 N8             4.1154     2.2846    -1.4056 N.am    
   9 C9             3.6624     3.4150    -2.0894 C.ar    
  10 S10            5.1261     1.2108    -2.1591 S.o2    
  11 C11            4.0114     0.0118    -2.9404 C.3     
  12 O12            5.7918     1.9885    -3.1445 O.2     
  13 O13            5.8466     0.6025    -1.0960 O.2     
  14 C14            3.2756     4.5457    -1.3834 C.ar    
  15 C15            2.8266     5.6656    -2.0658 C.ar    
  16 C16            2.7648     5.6540    -3.4521 C.ar    
  17 C17            3.1503     4.5273    -4.1536 C.ar    
  18 C18            3.6038     3.4113    -3.4779 C.ar    
  19 O19            2.4467     6.7741    -1.3775 O.3     
  20 C20            1.9946     7.8913    -2.1454 C.3     
  21 C21            1.6189     9.0187    -1.2187 C.ar    
  22 C22            2.5675     9.9529    -0.8468 C.ar    
  23 C23            2.2230    10.9871     0.0033 C.ar    
  24 C24            0.9297    11.0874     0.4811 C.ar    
  25 C25           -0.0191    10.1537     0.1084 C.ar    
  26 C26            0.3244     9.1220    -0.7451 C.ar    
  27 C27            4.8188    -0.9201    -3.8462 C.3     
  28 F28            5.7739    -1.6000    -3.0830 F       
  29 F29            3.9591    -1.8448    -4.4488 F       
  30 F30            5.4615    -0.1677    -4.8351 F       
  31 H31           -0.9553     1.9117     0.0170 H       
  32 H32           -0.9295    -0.5505     0.0080 H       
  33 H33            3.2203    -0.6121    -0.0308 H       
  34 H34            1.2010     3.1496     0.0072 H       
  35 H35            3.6050     3.0027     0.4978 H       
  36 H36            4.4390     1.4303     0.4824 H       
  37 H37            3.5106    -0.5744    -2.1699 H       
  38 H38            3.2672     0.5416    -3.5351 H       
  39 H39            3.3241     4.5528    -0.3046 H       
  40 H40            2.4145     6.5266    -3.9835 H       
  41 H41            3.1008     4.5209    -5.2325 H       
  42 H42            3.9048     2.5323    -4.0284 H       
  43 H43            2.7913     8.2197    -2.8128 H       
  44 H44            1.1248     7.5995    -2.7339 H       
  45 H45            3.5780     9.8746    -1.2200 H       
  46 H46            2.9642    11.7166     0.2945 H       
  47 H47            0.6606    11.8949     1.1458 H       
  48 H48           -1.0295    10.2318     0.4819 H       
  49 H49           -0.4169     8.3925    -1.0363 H       
@<TRIPOS>BOND
   1    1    2 ar
   2    1    6 ar
   3    1   31 1
   4    2    3 ar
   5    2   32 1
   6    3    4 ar
   7    4    5 ar
   8    4   33 1
   9    5    6 ar
  10    5    7 1
  11    6   34 1
  12    7    8 1
  13    7   35 1
  14    7   36 1
  15    8    9 1
  16    8   10 am
  17    9   14 ar
  18    9   18 ar
  19   10   11 1
  20   10   12 2
  21   10   13 2
  22   11   27 1
  23   11   37 1
  24   11   38 1
  25   14   15 ar
  26   14   39 1
  27   15   16 ar
  28   15   19 1
  29   16   17 ar
  30   16   40 1
  31   17   18 ar
  32   17   41 1
  33   18   42 1
  34   19   20 1
  35   20   21 1
  36   20   43 1
  37   20   44 1
  38   21   22 ar
  39   21   26 ar
  40   22   23 ar
  41   22   45 1
  42   23   24 ar
  43   23   46 1
  44   24   25 ar
  45   24   47 1
  46   25   26 ar
  47   25   48 1
  48   26   49 1
  49   27   28 1
  50   27   29 1
  51   27   30 1

#	End of record

