#	Name: ASD04881132
#	Creating user name:	WinNT
#	Creation time:	15. 06. 2019 20:53

#	Modifying user name:	WinNT
#	Modification time:	15. 06. 2019 20:53

#	Program:	/corina/corina34_cracker 3.40 0067  02.08.2006

@<TRIPOS>MOLECULE
ASD04881132
  81   86    0    0    0
SMALL
NO_CHARGES


@<TRIPOS>ATOM
   1 N1            -0.3332     1.5721     1.2908 N.2     
   2 C2             0.8643     1.8847     0.7253 C.2     
   3 C3             1.3674     3.2389     0.4323 C.2     
   4 O4             2.4619     3.3837    -0.0781 O.2     
   5 C5             1.5102     0.7118     0.4816 C.2     
   6 O6             0.7009    -0.2748     0.8992 O.3     
   7 C7            -0.4174     0.2791     1.3887 C.2     
   8 N8             0.6147     4.3165     0.7300 N.am    
   9 C9             1.1354     5.6052     0.5532 C.ar    
  10 C10            0.2920     6.6552     0.1784 C.ar    
  11 C11            0.8070     7.9341     0.0032 C.ar    
  12 C12            2.1498     8.1719     0.1980 C.ar    
  13 C13            2.9984     7.1270     0.5727 C.ar    
  14 C14            2.4819     5.8406     0.7547 C.ar    
  15 C15            4.4366     7.3818     0.7808 C.2     
  16 O16            5.1743     6.4718     1.1069 O.2     
  17 N17            4.9327     8.6231     0.6096 N.am    
  18 N18           -1.0660     6.4193    -0.0200 N.3     
  19 C19           -1.2848     5.5497    -1.1842 C.3     
  20 C20           -2.7796     5.2506    -1.3204 C.3     
  21 N21           -3.5181     6.5130    -1.4635 N.3     
  22 C22           -3.2993     7.3827    -0.2993 C.3     
  23 C23           -1.8045     7.6818    -0.1630 C.3     
  24 C24           -4.8802     6.2764    -1.6625 C.ar    
  25 C25           -5.3172     5.6659    -2.8315 C.ar    
  26 C26           -6.6644     5.4330    -3.0249 C.ar    
  27 C27           -7.5785     5.8071    -2.0566 C.ar    
  28 C28           -7.1469     6.4148    -0.8921 C.ar    
  29 C29           -5.8002     6.6456    -0.6898 C.ar    
  30 C30           -1.5873    -0.4781     1.9623 C.3     
  31 C31           -2.3070    -1.4678     1.0439 C.3     
  32 C32           -1.4176    -1.9834     2.1771 C.3     
  33 C33           -4.3221     5.2589    -3.8875 C.3     
  34 C34            6.3608     8.8762     0.8163 C.3     
  35 C35            6.6593    10.3546     0.5591 C.3     
  36 C36            8.4447    12.0750     0.5217 C.2     
  37 C37            8.1507    10.6188     0.7750 C.3     
  38 S38            8.8815    12.7361    -0.9934 S.3     
  39 C39            8.9880    14.3403    -0.2726 C.2     
  40 C40            8.6884    14.2289     1.0250 C.2     
  41 N41            8.3978    13.0043     1.4156 N.2     
  42 C42            8.6780    15.4079     1.9635 C.3     
  43 C43            9.3533    15.6131    -0.9920 C.3     
  44 H44            2.4874     0.5965     0.0365 H       
  45 H45           -0.2875     4.1999     1.0667 H       
  46 H46            0.1530     8.7433    -0.2867 H       
  47 H47            2.5471     9.1668     0.0607 H       
  48 H48            3.1347     5.0318     1.0483 H       
  49 H49            4.3442     9.3490     0.3495 H       
  50 H50           -0.9308     6.0516    -2.0847 H       
  51 H51           -0.7381     4.6165    -1.0490 H       
  52 H52           -2.9475     4.6294    -2.2002 H       
  53 H53           -3.1276     4.7244    -0.4316 H       
  54 H54           -3.8460     8.3159    -0.4345 H       
  55 H55           -3.6532     6.8807     0.6012 H       
  56 H56           -1.6366     8.3030     0.7167 H       
  57 H57           -1.4564     8.2079    -1.0519 H       
  58 H58           -7.0049     4.9585    -3.9334 H       
  59 H59           -8.6317     5.6244    -2.2107 H       
  60 H60           -7.8633     6.7057    -0.1380 H       
  61 H61           -5.4634     7.1163     0.2220 H       
  62 H62           -2.1923     0.0687     2.6855 H       
  63 H63           -3.3854    -1.5724     1.1631 H       
  64 H64           -1.9343    -1.5712     0.0248 H       
  65 H65           -0.4598    -2.4261     1.9035 H       
  66 H66           -1.9109    -2.4272     3.0418 H       
  67 H67           -4.0429     4.2155    -3.7408 H       
  68 H68           -4.7693     5.3800    -4.8742 H       
  69 H69           -3.4343     5.8867    -3.8115 H       
  70 H70            6.6297     8.6243     1.8421 H       
  71 H71            6.9419     8.2630     0.1274 H       
  72 H72            6.3904    10.6064    -0.4667 H       
  73 H73            6.0782    10.9677     1.2480 H       
  74 H74            8.4196    10.3670     1.8008 H       
  75 H75            8.7318    10.0057     0.0861 H       
  76 H76            7.6838    15.8546     1.9748 H       
  77 H77            8.9381    15.0749     2.9683 H       
  78 H78            9.4047    16.1471     1.6263 H       
  79 H79            9.5453    15.3944    -2.0425 H       
  80 H80            8.5306    16.3239    -0.9134 H       
  81 H81           10.2481    16.0417    -0.5406 H       
@<TRIPOS>BOND
   1    1    7 2
   2    1    2 1
   3    2    3 1
   4    2    5 2
   5    3    4 2
   6    3    8 am
   7    5    6 1
   8    5   44 1
   9    6    7 1
  10    7   30 1
  11    8    9 1
  12    8   45 1
  13    9   10 ar
  14    9   14 ar
  15   10   11 ar
  16   10   18 1
  17   11   12 ar
  18   11   46 1
  19   12   13 ar
  20   12   47 1
  21   13   14 ar
  22   13   15 1
  23   14   48 1
  24   15   16 2
  25   15   17 am
  26   17   34 1
  27   17   49 1
  28   18   19 1
  29   18   23 1
  30   19   20 1
  31   19   50 1
  32   19   51 1
  33   20   21 1
  34   20   52 1
  35   20   53 1
  36   21   22 1
  37   21   24 1
  38   22   23 1
  39   22   54 1
  40   22   55 1
  41   23   56 1
  42   23   57 1
  43   24   25 ar
  44   24   29 ar
  45   25   26 ar
  46   25   33 1
  47   26   27 ar
  48   26   58 1
  49   27   28 ar
  50   27   59 1
  51   28   29 ar
  52   28   60 1
  53   29   61 1
  54   30   31 1
  55   30   32 1
  56   30   62 1
  57   31   32 1
  58   31   63 1
  59   31   64 1
  60   32   65 1
  61   32   66 1
  62   33   67 1
  63   33   68 1
  64   33   69 1
  65   34   35 1
  66   34   70 1
  67   34   71 1
  68   35   37 1
  69   35   72 1
  70   35   73 1
  71   36   37 1
  72   36   38 1
  73   36   41 2
  74   37   74 1
  75   37   75 1
  76   38   39 1
  77   39   40 2
  78   39   43 1
  79   40   41 1
  80   40   42 1
  81   42   76 1
  82   42   77 1
  83   42   78 1
  84   43   79 1
  85   43   80 1
  86   43   81 1

#	End of record

