#	Name: ASD01840500
#	Creating user name:	WinNT
#	Creation time:	15. 06. 2019 19:37

#	Modifying user name:	WinNT
#	Modification time:	15. 06. 2019 19:37

#	Program:	/corina/corina34_cracker 3.40 0067  02.08.2006

@<TRIPOS>MOLECULE
ASD01840500
  35   37    0    0    0
SMALL
NO_CHARGES


@<TRIPOS>ATOM
   1 Cl1            0.0000     0.0000     0.0000 Cl      
   2 H2             0.0000     1.3700     0.0000 H       
   3 C3             8.4426    17.6602     6.2379 C.3     
   4 C4             8.2069    16.1718     6.2200 C.ar    
   5 N5             8.2061    15.5176     5.0727 N.ar    
   6 N6             8.0112    14.2543     5.0000 N.ar    
   7 C7             7.7934    13.5009     6.0817 C.ar    
   8 S8             7.5055    11.7744     6.2226 S.3     
   9 C9             7.3594    11.8473     7.9700 C.ar    
  10 C10            7.1122    10.8285     8.9087 C.ar    
  11 N11            6.9425     9.5177     8.4750 N.pl3   
  12 C12            6.6849     8.4521     9.4468 C.3     
  13 C13            5.6010     7.4287     9.1022 C.3     
  14 C14            7.0764     7.0266     9.0524 C.3     
  15 N15            7.0406    11.1054    10.1965 N.ar    
  16 C16            7.1953    12.3360    10.6559 C.ar    
  17 C17            7.4371    13.3799     9.8154 C.ar    
  18 C18            7.5257    13.1476     8.4242 C.ar    
  19 C19            7.7759    14.1022     7.3380 C.ar    
  20 C20            7.9976    15.4928     7.4029 C.ar    
  21 C21            8.0008    16.2172     8.7243 C.3     
  22 H22            9.5107    17.8578     6.3285 H       
  23 H23            8.0694    18.0983     5.3122 H       
  24 H24            7.9183    18.1010     7.0858 H       
  25 H25            6.9947     9.3092     7.5291 H       
  26 H26            6.7973     8.7335    10.4938 H       
  27 H27            5.0000     7.0366     9.9227 H       
  28 H28            5.0796     7.5482     8.1526 H       
  29 H29            7.5256     6.8816     8.0699 H       
  30 H30            7.4460     6.3700     9.8400 H       
  31 H31            7.1281    12.5166    11.7186 H       
  32 H32            7.5603    14.3780    10.2091 H       
  33 H33            6.9764    16.4567     9.0098 H       
  34 H34            8.4509    15.5810     9.4864 H       
  35 H35            8.5772    17.1378     8.6327 H       
@<TRIPOS>BOND
   1    1    2 1
   2    3    4 1
   3    3   22 1
   4    3   23 1
   5    3   24 1
   6    4   20 ar
   7    4    5 ar
   8    5    6 ar
   9    6    7 ar
  10    7   19 ar
  11    7    8 1
  12    8    9 1
  13    9   18 ar
  14    9   10 ar
  15   10   11 1
  16   10   15 ar
  17   11   12 1
  18   11   25 1
  19   12   14 1
  20   12   13 1
  21   12   26 1
  22   13   14 1
  23   13   27 1
  24   13   28 1
  25   14   29 1
  26   14   30 1
  27   15   16 ar
  28   16   17 ar
  29   16   31 1
  30   17   18 ar
  31   17   32 1
  32   18   19 1
  33   19   20 ar
  34   20   21 1
  35   21   33 1
  36   21   34 1
  37   21   35 1

#	End of record

