#	Name: ASD09740471
#	Creating user name:	WinNT
#	Creation time:	15. 06. 2019 21:23

#	Modifying user name:	WinNT
#	Modification time:	15. 06. 2019 21:23

#	Program:	/corina/corina34_cracker 3.40 0067  02.08.2006

@<TRIPOS>MOLECULE
ASD09740471
  69   73    0    0    0
SMALL
NO_CHARGES


@<TRIPOS>ATOM
   1 N1            -0.6763     0.9138    -0.2099 N.2     
   2 C2            -0.6245    -0.3665     0.0614 C.2     
   3 C3             0.3471     1.6396     0.1442 C.2     
   4 S4             1.5473     0.6108     0.9213 S.3     
   5 C5             0.4987    -0.7858     0.6841 C.2     
   6 C6             0.4796     3.0951    -0.0728 C.ar    
   7 C7            -0.5424     3.8012    -0.7021 C.ar    
   8 C8             1.6289     3.7647     0.3589 C.ar    
   9 C9             1.7576     5.1220     0.1595 C.ar    
  10 C10            0.7476     5.8348    -0.4713 C.ar    
  11 C11           -0.4118     5.1745    -0.9043 C.ar    
  12 O12            0.8794     7.1711    -0.6646 O.3     
  13 C13            2.1303     7.7589    -0.3014 C.3     
  14 C14            2.3469     9.0385    -1.1117 C.3     
  15 C15            2.1214     8.0957     1.1910 C.3     
  16 C16           -1.4556     5.9075    -1.5554 C.1     
  17 N17           -2.2836     6.4889    -2.0720 N.1     
  18 C18            0.7960    -2.1739     1.0955 C.ar    
  19 C19            2.0194    -2.7585     0.7537 C.ar    
  20 C20            2.2908    -4.0542     1.1411 C.ar    
  21 C21            1.3511    -4.7709     1.8663 C.ar    
  22 C22            0.1399    -4.1978     2.2057 C.ar    
  23 C23           -0.1410    -2.9003     1.8301 C.ar    
  24 C24            3.1929    -2.1972    -0.0199 C.3     
  25 C25            4.3774    -3.1299     0.3109 C.3     
  26 C26            3.6670    -4.4564     0.6548 C.3     
  27 N27            3.5582    -5.2991    -0.5387 N.am    
  28 S28            4.3592    -6.7469    -0.6057 S.o2    
  29 O29            3.9948    -7.2909    -1.8669 O.2     
  30 O30            5.7095    -6.4143    -0.3139 O.2     
  31 C31            3.6392    -7.7253     0.7415 C.3     
  32 C32            4.2567    -9.1000     0.7496 C.2     
  33 N33            3.8724   -10.0059     1.6704 N.am    
  34 O34            5.0995    -9.3910    -0.0726 O.2     
  35 C35            4.4610   -11.3543     1.6981 C.3     
  36 C36            4.9289   -11.6484     3.1280 C.3     
  37 O37            3.8504   -11.4077     4.0350 O.3     
  38 C38            3.3985   -10.0516     4.0603 C.3     
  39 C39            2.8563    -9.6739     2.6817 C.3     
  40 H40           -1.4269    -1.0423    -0.1953 H       
  41 H41           -1.4326     3.2868    -1.0327 H       
  42 H42            2.4185     3.2160     0.8508 H       
  43 H43            2.6476     5.6331     0.4957 H       
  44 H44            2.9364     7.0557    -0.5104 H       
  45 H45            1.5407     9.7417    -0.9028 H       
  46 H46            3.3010     9.4868    -0.8347 H       
  47 H47            2.3532     8.7985    -2.1750 H       
  48 H48            1.9670     7.1841     1.7683 H       
  49 H49            3.0755     8.5440     1.4680 H       
  50 H50            1.3152     8.7989     1.4000 H       
  51 H51            1.5671    -5.7851     2.1681 H       
  52 H52           -0.5854    -4.7648     2.7704 H       
  53 H53           -1.0873    -2.4522     2.0951 H       
  54 H54            2.9843    -2.2155    -1.0896 H       
  55 H55            3.4096    -1.1801     0.3067 H       
  56 H56            5.0282    -3.2519    -0.5549 H       
  57 H57            4.9372    -2.7564     1.1683 H       
  58 H58            4.2077    -4.9820     1.4419 H       
  59 H59            3.0171    -5.0089    -1.2896 H       
  60 H60            3.8364    -7.2328     1.6937 H       
  61 H61            2.5628    -7.8114     0.5930 H       
  62 H62            3.7124   -12.0879     1.3986 H       
  63 H63            5.3112   -11.3978     1.0174 H       
  64 H64            5.2412   -12.6901     3.2019 H       
  65 H65            5.7669   -10.9977     3.3779 H       
  66 H66            2.6097    -9.9445     4.8050 H       
  67 H67            4.2309    -9.3951     4.3136 H       
  68 H68            2.6416    -8.6057     2.6516 H       
  69 H69            1.9459   -10.2377     2.4782 H       
@<TRIPOS>BOND
   1    1    2 1
   2    1    3 2
   3    2    5 2
   4    2   40 1
   5    3    4 1
   6    3    6 1
   7    4    5 1
   8    5   18 1
   9    6    7 ar
  10    6    8 ar
  11    7   11 ar
  12    7   41 1
  13    8    9 ar
  14    8   42 1
  15    9   10 ar
  16    9   43 1
  17   10   11 ar
  18   10   12 1
  19   11   16 1
  20   12   13 1
  21   13   14 1
  22   13   15 1
  23   13   44 1
  24   14   45 1
  25   14   46 1
  26   14   47 1
  27   15   48 1
  28   15   49 1
  29   15   50 1
  30   16   17 3
  31   18   19 ar
  32   18   23 ar
  33   19   20 ar
  34   19   24 1
  35   20   21 ar
  36   20   26 1
  37   21   22 ar
  38   21   51 1
  39   22   23 ar
  40   22   52 1
  41   23   53 1
  42   24   25 1
  43   24   54 1
  44   24   55 1
  45   25   26 1
  46   25   56 1
  47   25   57 1
  48   26   27 1
  49   26   58 1
  50   27   28 am
  51   27   59 1
  52   28   29 2
  53   28   30 2
  54   28   31 1
  55   31   32 1
  56   31   60 1
  57   31   61 1
  58   32   33 am
  59   32   34 2
  60   33   35 1
  61   33   39 1
  62   35   36 1
  63   35   62 1
  64   35   63 1
  65   36   37 1
  66   36   64 1
  67   36   65 1
  68   37   38 1
  69   38   39 1
  70   38   66 1
  71   38   67 1
  72   39   68 1
  73   39   69 1

#	End of record

