#	Name: ASD01880696
#	Creating user name:	WinNT
#	Creation time:	15. 06. 2019 19:41

#	Modifying user name:	WinNT
#	Modification time:	15. 06. 2019 19:41

#	Program:	/corina/corina34_cracker 3.40 0067  02.08.2006

@<TRIPOS>MOLECULE
ASD01880696
  40   42    0    0    0
SMALL
NO_CHARGES


@<TRIPOS>ATOM
   1 N1            -0.0158     1.3143     0.0093 N.ar    
   2 C2             0.0021    -0.0041     0.0020 C.ar    
   3 N3             1.1322    -0.6838    -0.0124 N.ar    
   4 C4             2.3027    -0.0621    -0.0203 C.ar    
   5 C5             2.3326     1.3187    -0.0131 C.ar    
   6 C6             1.1186     2.0082     0.0022 C.ar    
   7 C7             3.6431     2.0627    -0.0212 C.3     
   8 O8             4.7224     1.1263    -0.0361 O.3     
   9 C9             5.9802     1.6359    -0.0449 C.ar    
  10 C10            7.0770     0.7797    -0.0595 C.ar    
  11 C11            8.3487     1.2964    -0.0689 C.ar    
  12 C12            8.5503     2.6807    -0.0638 C.ar    
  13 C13            7.4452     3.5362    -0.0494 C.ar    
  14 C14            6.1715     3.0124    -0.0450 C.ar    
  15 C15            9.7193     0.6667    -0.0849 C.3     
  16 N16           10.6798     1.7759    -0.0884 N.am    
  17 C17           10.0011     2.9360    -0.0761 C.2     
  18 O18           10.5120     4.0393    -0.0757 O.2     
  19 Br19          -1.6376    -0.9460     0.0133 Br      
  20 C20            7.6471     5.0296    -0.0432 C.3     
  21 N21            1.0961     3.3934     0.0094 N.pl3   
  22 C22           12.6332     1.6012    -1.5496 C.3     
  23 C23           12.1385     1.6412    -0.1023 C.3     
  24 H24            3.2222    -0.6285    -0.0317 H       
  25 H25            3.6973     2.6937    -0.9083 H       
  26 H26            3.7136     2.6841     0.8716 H       
  27 H27            6.9279    -0.2900    -0.0632 H       
  28 H28            5.3180     3.6740    -0.0343 H       
  29 H29            9.8598     0.0522     0.8043 H       
  30 H30            9.8430     0.0612    -0.9828 H       
  31 H31            7.6867     5.3951    -1.0693 H       
  32 H32            6.8183     5.5060     0.4805 H       
  33 H33            8.5822     5.2677     0.4637 H       
  34 H34            1.9282     3.8920     0.0038 H       
  35 H35            0.2484     3.8647     0.0200 H       
  36 H36           12.3486     2.5233    -2.0564 H       
  37 H37           13.7185     1.5010    -1.5600 H       
  38 H38           12.1848     0.7509    -2.0635 H       
  39 H39           12.5869     2.4915     0.4115 H       
  40 H40           12.4231     0.7191     0.4045 H       
@<TRIPOS>BOND
   1    1    2 ar
   2    1    6 ar
   3    2    3 ar
   4    2   19 1
   5    3    4 ar
   6    4    5 ar
   7    4   24 1
   8    5    6 ar
   9    5    7 1
  10    6   21 1
  11    7    8 1
  12    7   25 1
  13    7   26 1
  14    8    9 1
  15    9   10 ar
  16    9   14 ar
  17   10   11 ar
  18   10   27 1
  19   11   12 ar
  20   11   15 1
  21   12   13 ar
  22   12   17 1
  23   13   14 ar
  24   13   20 1
  25   14   28 1
  26   15   16 1
  27   15   29 1
  28   15   30 1
  29   16   17 am
  30   16   23 1
  31   17   18 2
  32   20   31 1
  33   20   32 1
  34   20   33 1
  35   21   34 1
  36   21   35 1
  37   22   23 1
  38   22   36 1
  39   22   37 1
  40   22   38 1
  41   23   39 1
  42   23   40 1

#	End of record

