#	Name: ASD04590525
#	Creating user name:	WinNT
#	Creation time:	15. 06. 2019 20:51

#	Modifying user name:	WinNT
#	Modification time:	15. 06. 2019 20:51

#	Program:	/corina/corina34_cracker 3.40 0067  02.08.2006

@<TRIPOS>MOLECULE
ASD04590525
  64   68    0    0    0
SMALL
NO_CHARGES


@<TRIPOS>ATOM
   1 C1            -0.0169     1.3923     0.0097 C.ar    
   2 C2             0.0021    -0.0041     0.0020 C.ar    
   3 C3            -2.4013    -0.0379     0.0252 C.ar    
   4 C4            -2.4140     1.3672     0.0440 C.ar    
   5 C5            -1.2191     2.0735     0.0306 C.ar    
   6 N6            -3.6929    -0.4513     0.0444 N.2     
   7 C7            -4.4887     0.5899     0.0732 C.2     
   8 N8            -3.7458     1.7406     0.0743 N.pl3   
   9 C9            -5.9649     0.5312     0.1001 C.2     
  10 C10           -6.7501    -0.6448     0.0995 C.2     
  11 C11           -8.0530    -0.2719     0.1287 C.2     
  12 N12           -8.0971     1.0863     0.1472 N.pl3   
  13 N13           -6.7814     1.5660     0.1345 N.2     
  14 N14           -6.2668    -1.9631     0.0734 N.am    
  15 C15           -7.1305    -2.9978     0.0761 C.2     
  16 O16           -8.3284    -2.7897     0.1012 O.2     
  17 C17           -1.1778    -0.7174     0.0095 C.ar    
  18 C18           -6.6227    -4.3825     0.0486 C.ar    
  19 C19           -7.5172    -5.4614     0.0514 C.ar    
  20 O20            1.1536     2.0851     0.0022 O.3     
  21 C21           -7.0287    -6.7592     0.0249 C.ar    
  22 C22           -5.6671    -6.9857    -0.0039 C.ar    
  23 C23           -4.7795    -5.9219    -0.0063 C.ar    
  24 C24           -5.2474    -4.6260     0.0139 C.ar    
  25 O25           -8.8549    -5.2373     0.0802 O.3     
  26 C26            1.0634     3.5113     0.0108 C.3     
  27 O27            1.1915    -0.6643    -0.0133 O.3     
  28 C28            1.1408    -2.0924    -0.0205 C.3     
  29 C29           -9.7052    -6.3858     0.0812 C.3     
  30 S30           -3.0445    -6.2274    -0.0421 S.o2    
  31 N31           -2.5909    -6.2916    -1.6335 N.am    
  32 O32           -2.4225    -5.0734     0.5061 O.2     
  33 O33           -2.8564    -7.5348     0.4818 O.2     
  34 C34           -2.1644    -5.0787    -2.3492 C.3     
  35 C35           -2.5965    -7.5644    -2.3720 C.3     
  36 C36           -1.2373    -7.7294    -3.0613 C.3     
  37 O37           -0.9504    -6.5544    -3.8235 O.3     
  38 C38           -0.8271    -5.3697    -3.0397 C.3     
  39 H39           -1.2289     3.1534     0.0368 H       
  40 H40           -4.0892     2.6476     0.0928 H       
  41 H41           -8.9046    -0.9360     0.1360 H       
  42 H42           -8.9006     1.6293     0.1688 H       
  43 H43           -5.3113    -2.1290     0.0534 H       
  44 H44           -1.1579    -1.7972     0.0027 H       
  45 H45           -7.7143    -7.5937     0.0273 H       
  46 H46           -5.2916    -7.9981    -0.0245 H       
  47 H47           -4.5519    -3.7998     0.0120 H       
  48 H48            0.5192     3.8462    -0.8723 H       
  49 H49            0.5362     3.8366     0.9076 H       
  50 H50            2.0660     3.9388     0.0035 H       
  51 H51            0.6232    -2.4420     0.8728 H       
  52 H52            0.6056    -2.4325    -0.9070 H       
  53 H53            2.1548    -2.4919    -0.0327 H       
  54 H54           -9.4913    -6.9955     0.9591 H       
  55 H55          -10.7471    -6.0665     0.1056 H       
  56 H56           -9.5257    -6.9715    -0.8204 H       
  57 H57           -2.9123    -4.8107    -3.0955 H       
  58 H58           -2.0413    -4.2590    -1.6413 H       
  59 H59           -2.7594    -8.3900    -1.6792 H       
  60 H60           -3.3886    -7.5510    -3.1206 H       
  61 H61           -0.4623    -7.8733    -2.3085 H       
  62 H62           -1.2676    -8.5946    -3.7236 H       
  63 H63           -0.5657    -4.5315    -3.6855 H       
  64 H64           -0.0487    -5.5089    -2.2895 H       
@<TRIPOS>BOND
   1    1    2 ar
   2    1   20 1
   3    1    5 ar
   4    2   17 ar
   5    2   27 1
   6    3    4 ar
   7    3    6 1
   8    3   17 ar
   9    4    5 ar
  10    4    8 1
  11    5   39 1
  12    6    7 2
  13    7    8 1
  14    7    9 1
  15    8   40 1
  16    9   10 1
  17    9   13 2
  18   10   11 2
  19   10   14 1
  20   11   12 1
  21   11   41 1
  22   12   13 1
  23   12   42 1
  24   14   15 am
  25   14   43 1
  26   15   16 2
  27   15   18 1
  28   17   44 1
  29   18   19 ar
  30   18   24 ar
  31   19   21 ar
  32   19   25 1
  33   20   26 1
  34   21   22 ar
  35   21   45 1
  36   22   23 ar
  37   22   46 1
  38   23   24 ar
  39   23   30 1
  40   24   47 1
  41   25   29 1
  42   26   48 1
  43   26   49 1
  44   26   50 1
  45   27   28 1
  46   28   51 1
  47   28   52 1
  48   28   53 1
  49   29   54 1
  50   29   55 1
  51   29   56 1
  52   30   31 am
  53   30   32 2
  54   30   33 2
  55   31   34 1
  56   31   35 1
  57   34   38 1
  58   34   57 1
  59   34   58 1
  60   35   36 1
  61   35   59 1
  62   35   60 1
  63   36   37 1
  64   36   61 1
  65   36   62 1
  66   37   38 1
  67   38   63 1
  68   38   64 1

#	End of record

