#	Name: ASD03740086
#	Creating user name:	WinNT
#	Creation time:	15. 06. 2019 20:46

#	Modifying user name:	WinNT
#	Modification time:	15. 06. 2019 20:46

#	Program:	/corina/corina34_cracker 3.40 0067  02.08.2006

@<TRIPOS>MOLECULE
ASD03740086
  43   45    0    0    0
SMALL
NO_CHARGES


@<TRIPOS>ATOM
   1 C1             0.0374     1.3759    -0.8931 C.ar    
   2 C2             0.0551    -0.0129    -0.8673 C.ar    
   3 C3             1.2289    -0.6949    -0.7131 C.ar    
   4 C4             2.4252     0.0056    -0.5803 C.ar    
   5 C5             2.4088     1.4135    -0.6068 C.ar    
   6 C6             1.1948     2.0887    -0.7652 C.ar    
   7 N7             3.7323    -0.3720    -0.4152 N.pl3   
   8 N8             4.5343     0.7712    -0.3379 N.2     
   9 C9             3.7976     1.8432    -0.4459 C.2     
  10 O10            4.2413     3.1277    -0.4148 O.3     
  11 C11            4.2129    -1.7535    -0.3322 C.3     
  12 C12            5.6468     3.3247    -0.2478 C.3     
  13 C13            5.9539     4.8235    -0.2372 C.3     
  14 C14            7.4587     5.0345    -0.0583 C.3     
  15 N15            7.7536     6.4735    -0.0481 N.3     
  16 C16            9.1635     6.7215     0.3050 C.3     
  17 C17            7.4860     7.0786    -1.3703 C.3     
  18 C18            8.5502     8.1946    -1.5173 C.3     
  19 C19            9.7860     7.5397    -0.8459 C.3     
  20 C20            9.9036     5.3911     0.4575 C.3     
  21 H21           -0.9002     1.8967    -1.0201 H       
  22 H22           -0.8703    -0.5601    -0.9699 H       
  23 H23            1.2290    -1.7747    -0.6939 H       
  24 H24            1.1729     3.1682    -0.7870 H       
  25 H25            4.4555    -2.1144    -1.3316 H       
  26 H26            5.1042    -1.7910     0.2941 H       
  27 H27            3.4364    -2.3827     0.1028 H       
  28 H28            5.9662     2.8816     0.6955 H       
  29 H29            6.1806     2.8503    -1.0713 H       
  30 H30            5.6345     5.2666    -1.1804 H       
  31 H31            5.4201     5.2979     0.5863 H       
  32 H32            7.7781     4.5914     0.8849 H       
  33 H33            7.9925     4.5601    -0.8818 H       
  34 H34            9.2189     7.2853     1.2362 H       
  35 H35            7.6043     6.3353    -2.1587 H       
  36 H36            6.4831     7.5047    -1.3966 H       
  37 H37            8.7457     8.4119    -2.5673 H       
  38 H38            8.2475     9.0955    -0.9835 H       
  39 H39           10.4615     8.3011    -0.4560 H       
  40 H40           10.3042     6.8857    -1.5472 H       
  41 H41            9.7790     4.8000    -0.4498 H       
  42 H42           10.9637     5.5821     0.6239 H       
  43 H43            9.4953     4.8435     1.3069 H       
@<TRIPOS>BOND
   1    1    2 ar
   2    1    6 ar
   3    1   21 1
   4    2    3 ar
   5    2   22 1
   6    3    4 ar
   7    3   23 1
   8    4    5 ar
   9    4    7 1
  10    5    6 ar
  11    5    9 1
  12    6   24 1
  13    7    8 1
  14    7   11 1
  15    8    9 2
  16    9   10 1
  17   10   12 1
  18   11   25 1
  19   11   26 1
  20   11   27 1
  21   12   13 1
  22   12   28 1
  23   12   29 1
  24   13   14 1
  25   13   30 1
  26   13   31 1
  27   14   15 1
  28   14   32 1
  29   14   33 1
  30   15   16 1
  31   15   17 1
  32   16   20 1
  33   16   19 1
  34   16   34 1
  35   17   18 1
  36   17   35 1
  37   17   36 1
  38   18   19 1
  39   18   37 1
  40   18   38 1
  41   19   39 1
  42   19   40 1
  43   20   41 1
  44   20   42 1
  45   20   43 1

#	End of record

