#	Name: ASD01850013
#	Creating user name:	WinNT
#	Creation time:	15. 06. 2019 19:38

#	Modifying user name:	WinNT
#	Modification time:	15. 06. 2019 19:38

#	Program:	/corina/corina34_cracker 3.40 0067  02.08.2006

@<TRIPOS>MOLECULE
ASD01850013
  48   52    0    0    0
SMALL
NO_CHARGES


@<TRIPOS>ATOM
   1 Cl1            0.2471     0.3982     1.1338 Cl      
   2 C2             0.1074     2.0984     0.8122 C.ar    
   3 C3             1.2401     2.8923     0.7816 C.ar    
   4 C4             1.1282     4.2458     0.5254 C.ar    
   5 C5            -0.1152     4.8066     0.3003 C.ar    
   6 C6            -1.2473     4.0139     0.3312 C.ar    
   7 C7            -1.1361     2.6590     0.5807 C.ar    
   8 C8            -0.2365     6.2826     0.0216 C.3     
   9 N9             0.9560     6.7841    -0.6716 N.am    
  10 C10            1.8704     7.2844     0.3773 C.3     
  11 C11            1.1076     7.1034     1.7120 C.3     
  12 N12           -0.3017     7.0582     1.2849 N.am    
  13 C13           -1.5740     7.4060     1.4802 C.2     
  14 O14           -2.0463     7.7714     2.5388 O.2     
  15 C15           -2.3223     7.2788     0.2109 C.ar    
  16 C16           -1.5074     6.5850    -0.7196 C.ar    
  17 C17           -1.9642     6.3480    -1.9955 C.ar    
  18 C18           -3.2261     6.7765    -2.3708 C.ar    
  19 C19           -4.0327     7.4443    -1.4660 C.ar    
  20 C20           -3.5976     7.6911    -0.1748 C.ar    
  21 C21            1.1748     6.7873    -2.0015 C.2     
  22 O22            0.3802     6.2518    -2.7494 O.2     
  23 C23            2.3812     7.4421    -2.5506 C.ar    
  24 C24            2.5274     7.5987    -3.9298 C.ar    
  25 C25            3.6554     8.2110    -4.4357 C.ar    
  26 C26            4.6406     8.6691    -3.5792 C.ar    
  27 C27            4.5019     8.5171    -2.2110 C.ar    
  28 C28            3.3762     7.9117    -1.6918 C.ar    
  29 C29            5.8706     9.3362    -4.1389 C.3     
  30 F30            5.6474    10.7133    -4.2437 F       
  31 F31            6.9559     9.1031    -3.2875 F       
  32 F32            6.1502     8.8114    -5.4053 F       
  33 H33            2.2115     2.4544     0.9581 H       
  34 H34            2.0123     4.8657     0.5015 H       
  35 H35           -2.2185     4.4526     0.1557 H       
  36 H36           -2.0206     2.0398     0.6048 H       
  37 H37            2.7900     6.6994     0.3862 H       
  38 H38            2.0945     8.3381     0.2109 H       
  39 H39            1.3938     6.1696     2.1960 H       
  40 H40            1.2827     7.9513     2.3742 H       
  41 H41           -1.3379     5.8275    -2.7049 H       
  42 H42           -3.5820     6.5894    -3.3732 H       
  43 H43           -5.0179     7.7719    -1.7635 H       
  44 H44           -4.2372     8.2131     0.5214 H       
  45 H45            1.7594     7.2409    -4.5996 H       
  46 H46            3.7697     8.3328    -5.5027 H       
  47 H47            5.2747     8.8769    -1.5478 H       
  48 H48            3.2690     7.7939    -0.6236 H       
@<TRIPOS>BOND
   1    1    2 1
   2    2    3 ar
   3    2    7 ar
   4    3    4 ar
   5    3   33 1
   6    4    5 ar
   7    4   34 1
   8    5    6 ar
   9    5    8 1
  10    6    7 ar
  11    6   35 1
  12    7   36 1
  13    8    9 1
  14    8   12 1
  15    8   16 1
  16    9   10 1
  17    9   21 am
  18   10   11 1
  19   10   37 1
  20   10   38 1
  21   11   12 1
  22   11   39 1
  23   11   40 1
  24   12   13 am
  25   13   14 2
  26   13   15 1
  27   15   16 ar
  28   15   20 ar
  29   16   17 ar
  30   17   18 ar
  31   17   41 1
  32   18   19 ar
  33   18   42 1
  34   19   20 ar
  35   19   43 1
  36   20   44 1
  37   21   22 2
  38   21   23 1
  39   23   24 ar
  40   23   28 ar
  41   24   25 ar
  42   24   45 1
  43   25   26 ar
  44   25   46 1
  45   26   27 ar
  46   26   29 1
  47   27   28 ar
  48   27   47 1
  49   28   48 1
  50   29   30 1
  51   29   31 1
  52   29   32 1

#	End of record

