#	Name: ASD01230648
#	Creating user name:	WinNT
#	Creation time:	15. 06. 2019 19:14

#	Modifying user name:	WinNT
#	Modification time:	15. 06. 2019 19:14

#	Program:	/corina/corina34_cracker 3.40 0067  02.08.2006

@<TRIPOS>MOLECULE
ASD01230648
  43   46    0    0    0
SMALL
NO_CHARGES


@<TRIPOS>ATOM
   1 C1             0.6572     0.4522    -0.2388 C.2     
   2 C2             0.9042    -0.9031    -0.2009 C.2     
   3 C3            -0.1779    -1.7925    -0.2485 C.2     
   4 C4            -1.4391    -1.3367    -0.3403 C.2     
   5 N5            -1.7416     0.0008    -0.3988 N.pl3   
   6 C6            -0.7406     0.9271    -0.3199 C.2     
   7 C7            -3.1591     0.3392    -0.5515 C.3     
   8 C8            -3.4947     1.6127     0.2300 C.3     
   9 S9            -2.4022     2.9284    -0.3946 S.o2    
  10 N10           -0.9061     2.2274    -0.3087 N.am    
  11 C11            1.7764     1.4200    -0.1926 C.ar    
  12 C12            2.6997     1.4718    -1.2379 C.ar    
  13 C13            3.7404     2.3744    -1.1921 C.ar    
  14 C14            3.8709     3.2322    -0.1067 C.ar    
  15 C15            2.9533     3.1832     0.9358 C.ar    
  16 C16            1.9073     2.2865     0.8935 C.ar    
  17 N17            4.9303     4.1482    -0.0630 N.pl3   
  18 N18            5.7054     4.4593     1.0617 N.2     
  19 O19           -2.6212     3.1499    -1.7811 O.2     
  20 O20           -2.3388     4.0101     0.5248 O.2     
  21 C21            6.5937     5.3546     0.7115 C.2     
  22 C22            6.4137     5.6427    -0.6458 C.2     
  23 C23            5.3892     4.8843    -1.1004 C.2     
  24 C24            4.8504     4.8697    -2.5077 C.3     
  25 C25            7.6317     5.9692     1.6148 C.3     
  26 F26            7.5809     5.3536     2.8700 F       
  27 F27            8.9018     5.7873     1.0572 F       
  28 F28            7.3759     7.3374     1.7557 F       
  29 H29            1.9164    -1.2743    -0.1360 H       
  30 H30            0.0037    -2.8564    -0.2113 H       
  31 H31           -2.2475    -2.0523    -0.3697 H       
  32 H32           -3.3795     0.4965    -1.6073 H       
  33 H33           -3.7676    -0.4837    -0.1765 H       
  34 H34           -4.5370     1.8859     0.0651 H       
  35 H35           -3.3150     1.4543     1.2934 H       
  36 H36            2.5990     0.8051    -2.0816 H       
  37 H37            4.4554     2.4147    -2.0005 H       
  38 H38            3.0575     3.8512     1.7779 H       
  39 H39            1.1943     2.2491     1.7039 H       
  40 H40            6.9931     6.3433    -1.2288 H       
  41 H41            5.3149     4.0571    -3.0662 H       
  42 H42            3.7708     4.7222    -2.4819 H       
  43 H43            5.0759     5.8194    -2.9929 H       
@<TRIPOS>BOND
   1    1    2 2
   2    1   11 1
   3    1    6 1
   4    2    3 1
   5    2   29 1
   6    3    4 2
   7    3   30 1
   8    4    5 1
   9    4   31 1
  10    5    6 1
  11    5    7 1
  12    6   10 2
  13    7    8 1
  14    7   32 1
  15    7   33 1
  16    8    9 1
  17    8   34 1
  18    8   35 1
  19    9   10 am
  20    9   19 2
  21    9   20 2
  22   11   12 ar
  23   11   16 ar
  24   12   13 ar
  25   12   36 1
  26   13   14 ar
  27   13   37 1
  28   14   15 ar
  29   14   17 1
  30   15   16 ar
  31   15   38 1
  32   16   39 1
  33   17   18 1
  34   17   23 1
  35   18   21 2
  36   21   22 1
  37   21   25 1
  38   22   23 2
  39   22   40 1
  40   23   24 1
  41   24   41 1
  42   24   42 1
  43   24   43 1
  44   25   26 1
  45   25   27 1
  46   25   28 1

#	End of record

