#	Name: ASD00069129
#	Creating user name:	WinNT
#	Creation time:	15. 06. 2019 18:29

#	Modifying user name:	WinNT
#	Modification time:	15. 06. 2019 18:29

#	Program:	/corina/corina34_cracker 3.40 0067  02.08.2006

@<TRIPOS>MOLECULE
ASD00069129
  50   53    0    0    0
SMALL
NO_CHARGES


@<TRIPOS>ATOM
   1 C1            -0.0635     1.2949    -0.5898 C.2     
   2 N2            -0.0205     0.0044    -0.3437 N.2     
   3 C3             1.2318    -0.4329    -0.5256 C.2     
   4 C4             2.0015     0.6327    -0.9013 C.2     
   5 N5             1.1901     1.7131    -0.9412 N.pl3   
   6 C6            -1.2635     2.1474    -0.5070 C.2     
   7 O7            -1.1845     3.3347    -0.7587 O.2     
   8 N8            -2.4480     1.6111    -0.1525 N.am    
   9 C9             1.3016    -4.1292     0.1910 C.ar    
  10 C10            0.8198    -2.8379     0.0388 C.ar    
  11 C11            1.7019    -1.8288    -0.3498 C.ar    
  12 C12            3.0417    -2.1686    -0.5697 C.ar    
  13 C13            3.4396    -3.4763    -0.3963 C.ar    
  14 N14            2.5770    -4.4055    -0.0277 N.ar    
  15 O15            0.4568    -5.1196     0.5738 O.3     
  16 C16           -3.5619     2.4380     0.0387 C.ar    
  17 C17           -4.8463     1.8957     0.0209 C.ar    
  18 C18           -5.9464     2.7213     0.2116 C.ar    
  19 C19           -5.7650     4.0779     0.4185 C.ar    
  20 C20           -4.4906     4.6141     0.4354 C.ar    
  21 C21           -3.3901     3.7980     0.2520 C.ar    
  22 F22           -7.1930     2.2008     0.1948 F       
  23 N23           -5.0263     0.5226    -0.1892 N.3     
  24 C24           -5.7500     0.2723    -1.4422 C.3     
  25 C25           -5.8007    -1.2333    -1.7116 C.3     
  26 C26           -6.5050    -1.9321    -0.5454 C.3     
  27 C27           -5.7594    -1.6159     0.7541 C.3     
  28 C28           -5.7099    -0.0992     0.9521 C.3     
  29 N29           -6.5429    -1.4844    -2.9542 N.3     
  30 H30            3.0582     0.6148    -1.1237 H       
  31 H31            1.4493     2.6178    -1.1760 H       
  32 H32           -2.5290     0.6523    -0.0297 H       
  33 H33           -0.2220    -2.6166     0.2179 H       
  34 H34            3.7544    -1.4154    -0.8717 H       
  35 H35            4.4719    -3.7452    -0.5647 H       
  36 H36            0.0263    -5.5757    -0.1622 H       
  37 H37           -6.6212     4.7193     0.5667 H       
  38 H38           -4.3544     5.6732     0.5968 H       
  39 H39           -2.3961     4.2200     0.2704 H       
  40 H40           -6.7651     0.6608    -1.3592 H       
  41 H41           -5.2365     0.7713    -2.2641 H       
  42 H42           -4.7862    -1.6200    -1.8085 H       
  43 H43           -7.5319    -1.5739    -0.4726 H       
  44 H44           -6.5050    -3.0092    -0.7125 H       
  45 H45           -6.2806    -2.0757     1.5938 H       
  46 H46           -4.7443    -2.0087     0.6961 H       
  47 H47           -5.1673     0.1298     1.8692 H       
  48 H48           -6.7251     0.2910     1.0239 H       
  49 H49           -6.5901    -2.4724    -3.1538 H       
  50 H50           -7.4661    -1.0795    -2.9121 H       
@<TRIPOS>BOND
   1    1    2 2
   2    1    5 1
   3    1    6 1
   4    2    3 1
   5    3    4 2
   6    3   11 1
   7    4    5 1
   8    4   30 1
   9    5   31 1
  10    6    7 2
  11    6    8 am
  12    8   16 1
  13    8   32 1
  14    9   10 ar
  15    9   14 ar
  16    9   15 1
  17   10   11 ar
  18   10   33 1
  19   11   12 ar
  20   12   13 ar
  21   12   34 1
  22   13   14 ar
  23   13   35 1
  24   15   36 1
  25   16   17 ar
  26   16   21 ar
  27   17   18 ar
  28   17   23 1
  29   18   19 ar
  30   18   22 1
  31   19   20 ar
  32   19   37 1
  33   20   21 ar
  34   20   38 1
  35   21   39 1
  36   23   24 1
  37   23   28 1
  38   24   25 1
  39   24   40 1
  40   24   41 1
  41   25   26 1
  42   25   29 1
  43   25   42 1
  44   26   27 1
  45   26   43 1
  46   26   44 1
  47   27   28 1
  48   27   45 1
  49   27   46 1
  50   28   47 1
  51   28   48 1
  52   29   49 1
  53   29   50 1

#	End of record

