#	Name: ASD05430626
#	Creating user name:	WinNT
#	Creation time:	15. 06. 2019 21:00

#	Modifying user name:	WinNT
#	Modification time:	15. 06. 2019 21:00

#	Program:	/corina/corina34_cracker 3.40 0067  02.08.2006

@<TRIPOS>MOLECULE
ASD05430626
  36   38    0    0    0
SMALL
NO_CHARGES


@<TRIPOS>ATOM
   1 C1            -0.0169     1.3941     0.0097 C.ar    
   2 C2             0.0021    -0.0041     0.0020 C.ar    
   3 C3             1.2091    -0.6785    -0.0131 C.ar    
   4 C4             2.4000     0.0318    -0.0207 C.ar    
   5 C5             2.3974     1.4040    -0.0133 C.ar    
   6 C6             1.1802     2.1163     0.0022 C.ar    
   7 C7             3.7040     2.1550    -0.0213 C.3     
   8 C8             4.5170     1.7771     1.2186 C.3     
   9 C9             4.4941     1.7905    -1.2798 C.3     
  10 N10           -1.2022    -0.7218     0.0101 N.pl3   
  11 C11           -1.3442    -2.0614     0.0044 C.2     
  12 N12           -2.5009    -0.1874     0.0321 N.2     
  13 C13           -3.3269    -1.2012     0.0324 C.2     
  14 N14           -2.6243    -2.3332     0.0156 N.2     
  15 C15           -4.8307    -1.1048     0.0532 C.3     
  16 N16            0.9632     3.4454     0.0109 N.2     
  17 C17           -0.2495     3.8527     0.0244 C.2     
  18 S18           -1.3481     2.5468     0.0214 S.3     
  19 O19           -5.3238    -1.0602    -1.2873 O.3     
  20 C20           -6.7467    -0.9679    -1.3804 C.3     
  21 H21            1.2243    -1.7583    -0.0187 H       
  22 H22            3.3396    -0.5006    -0.0322 H       
  23 H23            3.5069     3.2270    -0.0137 H       
  24 H24            4.7140     0.7051     1.2110 H       
  25 H25            5.4620     2.3203     1.2128 H       
  26 H26            3.9541     2.0368     2.1151 H       
  27 H27            3.9149     2.0598    -2.1631 H       
  28 H28            5.4391     2.3337    -1.2855 H       
  29 H29            4.6911     0.7185    -1.2874 H       
  30 H30           -0.5421    -2.7845    -0.0080 H       
  31 H31           -5.2435    -1.9750     0.5635 H       
  32 H32           -5.1294    -0.1988     0.5805 H       
  33 H33           -0.5414     4.8925     0.0328 H       
  34 H34           -7.1993    -1.8353    -0.8999 H       
  35 H35           -7.0852    -0.0591    -0.8829 H       
  36 H36           -7.0411    -0.9390    -2.4295 H       
@<TRIPOS>BOND
   1    1    2 ar
   2    1    6 ar
   3    1   18 1
   4    2    3 ar
   5    2   10 1
   6    3    4 ar
   7    3   21 1
   8    4    5 ar
   9    4   22 1
  10    5    6 ar
  11    5    7 1
  12    6   16 1
  13    7    8 1
  14    7    9 1
  15    7   23 1
  16    8   24 1
  17    8   25 1
  18    8   26 1
  19    9   27 1
  20    9   28 1
  21    9   29 1
  22   10   11 1
  23   10   12 1
  24   11   14 2
  25   11   30 1
  26   12   13 2
  27   13   14 1
  28   13   15 1
  29   15   19 1
  30   15   31 1
  31   15   32 1
  32   16   17 2
  33   17   18 1
  34   17   33 1
  35   19   20 1
  36   20   34 1
  37   20   35 1
  38   20   36 1

#	End of record

