#	Name: ASD03330959
#	Creating user name:	WinNT
#	Creation time:	15. 06. 2019 20:38

#	Modifying user name:	WinNT
#	Modification time:	15. 06. 2019 20:38

#	Program:	/corina/corina34_cracker 3.40 0067  02.08.2006

@<TRIPOS>MOLECULE
ASD03330959
  71   74    0    0    0
SMALL
NO_CHARGES


@<TRIPOS>ATOM
   1 N1            -0.6259     0.1097     3.3361 N.pl3   
   2 C2            -0.4422    -0.9554     2.5112 C.2     
   3 C3             0.8886    -1.4833     2.0427 C.3     
   4 N4             1.7940    -1.6007     3.1964 N.3     
   5 C5             2.5322    -0.3562     3.4199 C.3     
   6 C6             1.6814     0.8564     3.0535 C.3     
   7 C7             0.4399     0.9081     3.9481 C.3     
   8 C8            -1.9710     0.2800     3.4901 C.2     
   9 N9            -2.5923    -0.6509     2.8046 N.2     
  10 C10           -1.6767    -1.4321     2.1906 C.2     
  11 C11           -1.9630    -2.5920     1.3281 C.2     
  12 O12           -1.0482    -3.2193     0.8291 O.2     
  13 N13           -3.2385    -2.9578     1.0920 N.am    
  14 C14            2.7125    -2.7353     3.0315 C.3     
  15 C15           -4.8980    -3.9643    -0.3647 C.2     
  16 C16           -3.5231    -4.1110     0.2345 C.3     
  17 C17           -3.4639    -5.3930     1.0675 C.3     
  18 C18           -4.4077    -5.2670     2.2652 C.3     
  19 O19           -5.7843    -3.4367     0.2732 O.2     
  20 N20           -5.1427    -4.4194    -1.6095 N.am    
  21 C21           -4.0461    -4.9465    -2.4255 C.3     
  22 C22           -6.4392    -4.3884    -2.1207 C.ar    
  23 C23           -7.2113    -3.2365    -1.9958 C.ar    
  24 N24           -6.9384    -5.4541    -2.7319 N.ar    
  25 N25           -8.4380    -3.2110    -2.4814 N.ar    
  26 C26           -8.9339    -4.2777    -3.0858 C.ar    
  27 C27           -8.1683    -5.4211    -3.2158 C.ar    
  28 C28          -10.3353    -4.2446    -3.6390 C.3     
  29 C29           -3.8910    -6.5821     0.2046 C.3     
  30 C30           -2.0340    -5.6119     1.5658 C.3     
  31 C31           -2.6204     1.3369     4.2955 C.ar    
  32 C32           -3.6839     2.0710     3.7635 C.ar    
  33 C33           -4.2863     3.0569     4.5221 C.ar    
  34 C34           -3.8384     3.3169     5.8044 C.ar    
  35 C35           -2.7849     2.5931     6.3366 C.ar    
  36 C36           -2.1778     1.6014     5.5915 C.ar    
  37 F37           -4.1218     1.8180     2.5107 F       
  38 Cl38          -2.2300     2.9286     7.9469 Cl      
  39 H39            0.7514    -2.4635     1.5860 H       
  40 H40            1.3164    -0.7966     1.3123 H       
  41 H41            2.8147    -0.2912     4.4707 H       
  42 H42            3.4337    -0.3596     2.8072 H       
  43 H43            2.2668     1.7653     3.1932 H       
  44 H44            1.3737     0.7814     2.0106 H       
  45 H45            0.1079     1.9412     4.0514 H       
  46 H46            0.6814     0.5019     4.9303 H       
  47 H47           -3.9681    -2.4576     1.4900 H       
  48 H48            3.2602    -2.6263     2.0955 H       
  49 H49            3.4160    -2.7571     3.8638 H       
  50 H50            2.1427    -3.6643     3.0130 H       
  51 H51           -2.7824    -4.1619    -0.5636 H       
  52 H52           -5.4264    -5.1110     1.9102 H       
  53 H53           -4.3656    -6.1803     2.8586 H       
  54 H54           -4.1034    -4.4198     2.8799 H       
  55 H55           -3.8939    -6.0004    -2.1924 H       
  56 H56           -4.2951    -4.8402    -3.4813 H       
  57 H57           -3.1332    -4.3912    -2.2098 H       
  58 H58           -6.8070    -2.3653    -1.5020 H       
  59 H59           -8.5752    -6.2887    -3.7140 H       
  60 H60          -10.3102    -3.8959    -4.6714 H       
  61 H61          -10.7634    -5.2464    -3.6041 H       
  62 H62          -10.9458    -3.5676    -3.0416 H       
  63 H63           -3.1680    -6.7267    -0.5982 H       
  64 H64           -3.9349    -7.4805     0.8202 H       
  65 H65           -4.8743    -6.3862    -0.2229 H       
  66 H66           -1.7298    -4.7648     2.1805 H       
  67 H67           -1.9919    -6.5252     2.1593 H       
  68 H68           -1.3617    -5.7017     0.7126 H       
  69 H69           -5.1081     3.6255     4.1126 H       
  70 H70           -4.3124     4.0883     6.3933 H       
  71 H71           -1.3594     1.0346     6.0101 H       
@<TRIPOS>BOND
   1    1    2 1
   2    1    7 1
   3    1    8 1
   4    2    3 1
   5    2   10 2
   6    3    4 1
   7    3   39 1
   8    3   40 1
   9    4    5 1
  10    4   14 1
  11    5    6 1
  12    5   41 1
  13    5   42 1
  14    6    7 1
  15    6   43 1
  16    6   44 1
  17    7   45 1
  18    7   46 1
  19    8    9 2
  20    8   31 1
  21    9   10 1
  22   10   11 1
  23   11   12 2
  24   11   13 am
  25   13   16 1
  26   13   47 1
  27   14   48 1
  28   14   49 1
  29   14   50 1
  30   15   19 2
  31   15   20 am
  32   15   16 1
  33   16   17 1
  34   16   51 1
  35   17   18 1
  36   17   29 1
  37   17   30 1
  38   18   52 1
  39   18   53 1
  40   18   54 1
  41   20   21 1
  42   20   22 1
  43   21   55 1
  44   21   56 1
  45   21   57 1
  46   22   23 ar
  47   22   24 ar
  48   23   25 ar
  49   23   58 1
  50   24   27 ar
  51   25   26 ar
  52   26   27 ar
  53   26   28 1
  54   27   59 1
  55   28   60 1
  56   28   61 1
  57   28   62 1
  58   29   63 1
  59   29   64 1
  60   29   65 1
  61   30   66 1
  62   30   67 1
  63   30   68 1
  64   31   32 ar
  65   31   36 ar
  66   32   33 ar
  67   32   37 1
  68   33   34 ar
  69   33   69 1
  70   34   35 ar
  71   34   70 1
  72   35   36 ar
  73   35   38 1
  74   36   71 1

#	End of record

