#	Name: ASD03330099
#	Creating user name:	WinNT
#	Creation time:	15. 06. 2019 20:36

#	Modifying user name:	WinNT
#	Modification time:	15. 06. 2019 20:36

#	Program:	/corina/corina34_cracker 3.40 0067  02.08.2006

@<TRIPOS>MOLECULE
ASD03330099
  70   74    0    0    0
SMALL
NO_CHARGES


@<TRIPOS>ATOM
   1 C1             0.5312     0.9506    -1.0675 C.2     
   2 C2             0.2472    -0.0871    -0.2313 C.2     
   3 C3             1.7741     1.5188    -0.8795 C.2     
   4 C4             2.5162     0.9381     0.1234 C.2     
   5 S5             1.6015    -0.3748     0.8515 S.3     
   6 C6             3.8734     1.3542     0.5263 C.ar    
   7 C7             4.1681     1.5788     1.8746 C.ar    
   8 C8             4.8714     1.5201    -0.4365 C.ar    
   9 C9             6.1379     1.9094    -0.0527 C.ar    
  10 C10            6.4216     2.1351     1.2827 C.ar    
  11 C11            5.4401     1.9679     2.2435 C.ar    
  12 C12            2.2686     2.6578    -1.6895 C.ar    
  13 C13            2.3096     2.5607    -3.0798 C.ar    
  14 C14            2.6882     3.8306    -1.0630 C.ar    
  15 C15            3.1472     4.8885    -1.8195 C.ar    
  16 C16            3.1917     4.7866    -3.2032 C.ar    
  17 C17            2.7697     3.6223    -3.8304 C.ar    
  18 C18           -1.0037    -0.8507    -0.2340 C.2     
  19 O19           -2.0722    -0.2684    -0.2096 O.2     
  20 O20            3.6441     5.8311    -3.9458 O.3     
  21 N21           -0.9708    -2.1978    -0.2635 N.am    
  22 C22           -2.2149    -2.9753    -0.3434 C.3     
  23 C23            0.3100    -2.9164    -0.2226 C.3     
  24 C24            0.3726    -3.8806    -1.4114 C.3     
  25 C25           -0.8588    -4.7892    -1.3915 C.3     
  26 C26           -2.1188    -3.9388    -1.5306 C.3     
  27 C27            0.0800    -6.4868     0.1532 C.ar    
  28 C28            0.1273    -7.0865     1.4049 C.ar    
  29 C29            1.0919    -8.0365     1.6784 C.ar    
  30 C30            2.0115    -8.3908     0.7058 C.ar    
  31 C31            1.9665    -7.7939    -0.5428 C.ar    
  32 C32            1.0031    -6.8440    -0.8209 C.ar    
  33 Cl33           2.9376     1.3694     3.0811 Cl      
  34 C34           -0.7836    -5.7618    -2.5402 C.2     
  35 N35           -1.4132    -6.9507    -2.4588 N.am    
  36 O36           -0.1566    -5.4747    -3.5379 O.2     
  37 C37            3.6631     5.6586    -5.3642 C.3     
  38 O38            5.5642     7.1232    -5.6498 O.3     
  39 C39            4.1991     6.9300    -6.0255 C.3     
  40 F40            2.9544    -9.3200     0.9756 F       
  41 N41           -0.8991    -5.5290    -0.1277 N.pl3   
  42 H42           -0.1603     1.2979    -1.8209 H       
  43 H43            4.6521     1.3438    -1.4792 H       
  44 H44            6.9103     2.0379    -0.7965 H       
  45 H45            7.4152     2.4393     1.5769 H       
  46 H46            5.6686     2.1462     3.2839 H       
  47 H47            1.9818     1.6550    -3.5684 H       
  48 H48            2.6535     3.9106     0.0135 H       
  49 H49            3.4720     5.7973    -1.3349 H       
  50 H50            2.8056     3.5463    -4.9072 H       
  51 H51           -2.3511    -3.5425     0.5774 H       
  52 H52           -3.0588    -2.3007    -0.4877 H       
  53 H53            1.1315    -2.2029    -0.2872 H       
  54 H54            0.3840    -3.4787     0.7082 H       
  55 H55            0.3899    -3.3115    -2.3409 H       
  56 H56            1.2745    -4.4886    -1.3396 H       
  57 H57           -2.9955    -4.5863    -1.5401 H       
  58 H58           -2.0744    -3.3720    -2.4606 H       
  59 H59           -0.5893    -6.8099     2.1641 H       
  60 H60            1.1290    -8.5031     2.6517 H       
  61 H61            2.6851    -8.0715    -1.2998 H       
  62 H62            0.9686    -6.3785    -1.7948 H       
  63 H63           -1.9740    -7.1511    -1.6931 H       
  64 H64           -1.3055    -7.6059    -3.1659 H       
  65 H65            4.3074     4.8172    -5.6193 H       
  66 H66            2.6516     5.4627    -5.7200 H       
  67 H67            5.9698     7.9127    -6.0335 H       
  68 H68            4.1307     6.8325    -7.1090 H       
  69 H69            3.6079     7.7859    -5.6997 H       
  70 H70           -1.6051    -5.3544     0.5142 H       
@<TRIPOS>BOND
   1    1    2 2
   2    1    3 1
   3    1   42 1
   4    2   18 1
   5    2    5 1
   6    3    4 2
   7    3   12 1
   8    4    5 1
   9    4    6 1
  10    6    7 ar
  11    6    8 ar
  12    7   33 1
  13    7   11 ar
  14    8    9 ar
  15    8   43 1
  16    9   10 ar
  17    9   44 1
  18   10   11 ar
  19   10   45 1
  20   11   46 1
  21   12   13 ar
  22   12   14 ar
  23   13   17 ar
  24   13   47 1
  25   14   15 ar
  26   14   48 1
  27   15   16 ar
  28   15   49 1
  29   16   17 ar
  30   16   20 1
  31   17   50 1
  32   18   19 2
  33   18   21 am
  34   20   37 1
  35   21   22 1
  36   21   23 1
  37   22   26 1
  38   22   51 1
  39   22   52 1
  40   23   24 1
  41   23   53 1
  42   23   54 1
  43   24   25 1
  44   24   55 1
  45   24   56 1
  46   25   26 1
  47   25   34 1
  48   25   41 1
  49   26   57 1
  50   26   58 1
  51   27   28 ar
  52   27   32 ar
  53   27   41 1
  54   28   29 ar
  55   28   59 1
  56   29   30 ar
  57   29   60 1
  58   30   31 ar
  59   30   40 1
  60   31   32 ar
  61   31   61 1
  62   32   62 1
  63   34   35 am
  64   34   36 2
  65   35   63 1
  66   35   64 1
  67   37   39 1
  68   37   65 1
  69   37   66 1
  70   38   39 1
  71   38   67 1
  72   39   68 1
  73   39   69 1
  74   41   70 1

#	End of record

