#	Name: ASD00431151
#	Creating user name:	WinNT
#	Creation time:	15. 06. 2019 18:35

#	Modifying user name:	WinNT
#	Modification time:	15. 06. 2019 18:35

#	Program:	/corina/corina34_cracker 3.40 0067  02.08.2006

@<TRIPOS>MOLECULE
ASD00431151
  49   51    0    0    0
SMALL
NO_CHARGES


@<TRIPOS>ATOM
   1 C1            -0.2137     1.6123    -0.1515 C.2     
   2 C2            -0.2189     0.1058    -0.1878 C.3     
   3 O3             0.8385     2.2154    -0.1547 O.2     
   4 N4            -1.3785     2.2896    -0.1209 N.am    
   5 C5            -1.3735     3.7542    -0.0856 C.3     
   6 C6            -1.2635     4.2984    -1.5113 C.3     
   7 O7            -3.8810     3.7433     0.3532 O.3     
   8 N8            -4.7164     4.3419     0.9902 N.2     
   9 C9            -4.1781     5.3164     1.6874 C.2     
  10 C10           -2.7811     5.2773     1.4054 C.2     
  11 C11           -2.6521     4.2459     0.5425 C.2     
  12 O12           -4.3010     7.2553     3.2871 O.3     
  13 C13           -4.8772     6.2599     2.5809 C.2     
  14 C14           -6.2140     6.2768     2.8342 C.2     
  15 C15           -6.4446     7.3328     3.7343 C.2     
  16 C16           -5.2428     7.9082     3.9868 C.2     
  17 O17           -5.0283     8.9652     4.8085 O.3     
  18 C18           -3.7437     9.3525     5.0281 C.ar    
  19 C19           -2.9869     9.8687     3.9861 C.ar    
  20 C20           -1.6820    10.2620     4.2093 C.ar    
  21 C21           -1.1279    10.1409     5.4752 C.ar    
  22 C22           -1.8843     9.6244     6.5170 C.ar    
  23 C23           -3.1913     9.2368     6.2954 C.ar    
  24 O24            0.1569    10.5282     5.6949 O.3     
  25 C25            0.9201    10.9216     4.5526 C.3     
  26 C26            0.8270    12.4384     4.3748 C.3     
  27 C27            2.3829    10.5205     4.7539 C.3     
  28 H28            0.8074    -0.2606    -0.2140 H       
  29 H29           -0.7188    -0.2774     0.7018 H       
  30 H30           -0.7489    -0.2344    -1.0774 H       
  31 H31           -2.2201     1.8074    -0.1224 H       
  32 H32           -0.5233     4.1006     0.5021 H       
  33 H33           -0.3387     3.9427    -1.9656 H       
  34 H34           -2.1136     3.9520    -2.0990 H       
  35 H35           -1.2597     5.3880    -1.4851 H       
  36 H36           -2.0059     5.9224     1.7919 H       
  37 H37           -6.9555     5.6079     2.4231 H       
  38 H38           -7.3980     7.6294     4.1459 H       
  39 H39           -3.4182     9.9626     3.0004 H       
  40 H40           -1.0927    10.6635     3.3982 H       
  41 H41           -1.4525     9.5295     7.5024 H       
  42 H42           -3.7817     8.8391     7.1076 H       
  43 H43            0.5266    10.4268     3.6647 H       
  44 H44           -0.2150    12.7241     4.2314 H       
  45 H45            1.2206    12.9331     5.2628 H       
  46 H46            1.4092    12.7385     3.5036 H       
  47 H47            2.4492     9.4400     4.8806 H       
  48 H48            2.9651    10.8206     3.8827 H       
  49 H49            2.7764    11.0153     5.6418 H       
@<TRIPOS>BOND
   1    1    2 1
   2    1    3 2
   3    1    4 am
   4    2   28 1
   5    2   29 1
   6    2   30 1
   7    4    5 1
   8    4   31 1
   9    5    6 1
  10    5   11 1
  11    5   32 1
  12    6   33 1
  13    6   34 1
  14    6   35 1
  15    7    8 1
  16    7   11 1
  17    8    9 2
  18    9   10 1
  19    9   13 1
  20   10   11 2
  21   10   36 1
  22   12   13 1
  23   12   16 1
  24   13   14 2
  25   14   15 1
  26   14   37 1
  27   15   16 2
  28   15   38 1
  29   16   17 1
  30   17   18 1
  31   18   19 ar
  32   18   23 ar
  33   19   20 ar
  34   19   39 1
  35   20   21 ar
  36   20   40 1
  37   21   22 ar
  38   21   24 1
  39   22   23 ar
  40   22   41 1
  41   23   42 1
  42   24   25 1
  43   25   26 1
  44   25   27 1
  45   25   43 1
  46   26   44 1
  47   26   45 1
  48   26   46 1
  49   27   47 1
  50   27   48 1
  51   27   49 1

#	End of record

