#	Name: ASD01916266
#	Creating user name:	WinNT
#	Creation time:	15. 06. 2019 20:07

#	Modifying user name:	WinNT
#	Modification time:	15. 06. 2019 20:07

#	Program:	/corina/corina34_cracker 3.40 0067  02.08.2006

@<TRIPOS>MOLECULE
ASD01916266
  37   39    0    0    0
SMALL
NO_CHARGES


@<TRIPOS>ATOM
   1 C1            -0.0521     1.3251    -0.2458 C.ar    
   2 C2             0.0337    -0.0537    -0.1711 C.ar    
   3 C3             1.2278    -0.6577     0.1718 C.ar    
   4 C4             2.3515     0.1243     0.4433 C.ar    
   5 C5             2.2631     1.5148     0.3669 C.ar    
   6 C6             1.0612     2.1104     0.0228 C.ar    
   7 O7             0.9714     3.4642    -0.0530 O.3     
   8 C8             1.4669     4.0755    -1.1611 C.ar    
   9 C9             1.4015     5.4578    -1.3030 C.ar    
  10 N10            1.8955     6.0150    -2.3964 N.ar    
  11 C11            2.4433     5.2789    -3.3423 C.ar    
  12 N12            2.5237     3.9671    -3.2451 N.ar    
  13 C13            2.0579     3.3354    -2.1802 C.ar    
  14 Cl14          -1.3633    -1.0275    -0.5086 Cl      
  15 C15            3.6309    -0.5183     0.8111 C.2     
  16 N16            3.7137    -1.8616     0.8846 N.am    
  17 O17            4.6083     0.1646     1.0471 O.2     
  18 C18            4.9426    -2.4715     1.1268 C.ar    
  19 C19            5.0436    -3.8575     1.0860 C.ar    
  20 C20            7.3580    -3.6332     1.6036 C.ar    
  21 C21            7.1865    -2.2629     1.6228 C.ar    
  22 N22            6.0048    -1.7258     1.3883 N.ar    
  23 C23            6.2704    -4.4504     1.3280 C.ar    
  24 C24            8.7131    -4.2347     1.8736 C.3     
  25 F25            9.6370    -3.2127     2.1167 F       
  26 F26            8.6376    -5.0710     2.9926 F       
  27 F27            9.1229    -4.9789     0.7621 F       
  28 H28           -0.9870     1.7921    -0.5184 H       
  29 H29            1.2916    -1.7342     0.2301 H       
  30 H30            3.1293     2.1248     0.5763 H       
  31 H31            0.9536     6.0671    -0.5320 H       
  32 H32            2.8374     5.7647    -4.2228 H       
  33 H33            2.1271     2.2601    -2.1071 H       
  34 H34            2.9176    -2.4036     0.7689 H       
  35 H35            4.1763    -4.4632     0.8687 H       
  36 H36            8.0307    -1.6229     1.8329 H       
  37 H37            6.3790    -5.5246     1.3034 H       
@<TRIPOS>BOND
   1    1    2 ar
   2    1    6 ar
   3    1   28 1
   4    2    3 ar
   5    2   14 1
   6    3    4 ar
   7    3   29 1
   8    4    5 ar
   9    4   15 1
  10    5    6 ar
  11    5   30 1
  12    6    7 1
  13    7    8 1
  14    8    9 ar
  15    8   13 ar
  16    9   10 ar
  17    9   31 1
  18   10   11 ar
  19   11   12 ar
  20   11   32 1
  21   12   13 ar
  22   13   33 1
  23   15   16 am
  24   15   17 2
  25   16   18 1
  26   16   34 1
  27   18   19 ar
  28   18   22 ar
  29   19   23 ar
  30   19   35 1
  31   20   21 ar
  32   20   24 1
  33   20   23 ar
  34   21   22 ar
  35   21   36 1
  36   23   37 1
  37   24   25 1
  38   24   26 1
  39   24   27 1

#	End of record

