#	Name: ASD01840532
#	Creating user name:	WinNT
#	Creation time:	15. 06. 2019 19:37

#	Modifying user name:	WinNT
#	Modification time:	15. 06. 2019 19:37

#	Program:	/corina/corina34_cracker 3.40 0067  02.08.2006

@<TRIPOS>MOLECULE
ASD01840532
  47   50    0    0    0
SMALL
NO_CHARGES


@<TRIPOS>ATOM
   1 C1             1.2136    -1.1829     0.0056 C.3     
   2 O2             0.1205    -0.2625     0.0121 O.3     
   3 C3            -1.1301    -0.7909     0.0192 C.ar    
   4 C4            -2.2320     0.0538     0.0200 C.ar    
   5 C5            -3.5026    -0.4948     0.0273 C.ar    
   6 C6            -3.6259    -1.8812     0.0336 C.ar    
   7 O7            -4.8551    -2.4630     0.0405 O.3     
   8 C8            -5.9834    -1.5942     0.1601 C.3     
   9 C9            -6.3779    -1.0742    -1.2250 C.3     
  10 C10           -7.6230    -0.1934    -1.0983 C.3     
  11 N11           -8.7214    -0.9770    -0.5187 N.3     
  12 C12           -8.3839    -1.4471     0.8308 C.3     
  13 C13           -7.1615    -2.3653     0.7617 C.3     
  14 C14           -9.8991    -0.2495    -0.5105 C.ar    
  15 N15           -9.9857     0.8466     0.2326 N.ar    
  16 C16          -11.0844     1.5660     0.2688 C.ar    
  17 C17          -11.4678     2.8285     1.0018 C.3     
  18 O18          -12.8386     3.1253     0.6191 O.3     
  19 C19          -13.2670     2.1827    -0.2379 C.2     
  20 O20          -14.3730     2.1508    -0.7401 O.2     
  21 C21          -12.2048     1.1961    -0.4802 C.ar    
  22 C22          -12.1413     0.0416    -1.2740 C.ar    
  23 C23          -10.9754    -0.6757    -1.2875 C.ar    
  24 C24          -10.8585    -1.9196    -2.1302 C.3     
  25 C25           -2.4808    -2.6612     0.0324 C.ar    
  26 N26           -1.2848    -2.1040     0.0199 N.ar    
  27 H27            2.1534    -0.6308     0.0003 H       
  28 H28            1.1657    -1.8101     0.8958 H       
  29 H29            1.1554    -1.8099    -0.8841 H       
  30 H30           -2.0993     1.1256     0.0153 H       
  31 H31           -4.3778     0.1379     0.0285 H       
  32 H32           -5.7294    -0.7543     0.8068 H       
  33 H33           -5.5583    -0.4880    -1.6407 H       
  34 H34           -6.5934    -1.9166    -1.8822 H       
  35 H35           -7.4026     0.6562    -0.4520 H       
  36 H36           -7.9149     0.1669    -2.0847 H       
  37 H37           -8.1599    -0.5916     1.4681 H       
  38 H38           -9.2284    -1.9974     1.2455 H       
  39 H39           -7.3894    -3.2281     0.1358 H       
  40 H40           -6.9017    -2.7017     1.7654 H       
  41 H41          -11.4061     2.6694     2.0783 H       
  42 H42          -10.8113     3.6468     0.7059 H       
  43 H43          -12.9900    -0.2712    -1.8642 H       
  44 H44          -11.2562    -2.7712    -1.5781 H       
  45 H45          -11.4244    -1.7882    -3.0524 H       
  46 H46           -9.8104    -2.0992    -2.3695 H       
  47 H47           -2.5682    -3.7377     0.0373 H       
@<TRIPOS>BOND
   1    1    2 1
   2    1   27 1
   3    1   28 1
   4    1   29 1
   5    2    3 1
   6    3   26 ar
   7    3    4 ar
   8    4    5 ar
   9    4   30 1
  10    5    6 ar
  11    5   31 1
  12    6    7 1
  13    6   25 ar
  14    7    8 1
  15    8   13 1
  16    8    9 1
  17    8   32 1
  18    9   10 1
  19    9   33 1
  20    9   34 1
  21   10   11 1
  22   10   35 1
  23   10   36 1
  24   11   12 1
  25   11   14 1
  26   12   13 1
  27   12   37 1
  28   12   38 1
  29   13   39 1
  30   13   40 1
  31   14   23 ar
  32   14   15 ar
  33   15   16 ar
  34   16   21 ar
  35   16   17 1
  36   17   18 1
  37   17   41 1
  38   17   42 1
  39   18   19 1
  40   19   20 2
  41   19   21 1
  42   21   22 ar
  43   22   23 ar
  44   22   43 1
  45   23   24 1
  46   24   44 1
  47   24   45 1
  48   24   46 1
  49   25   26 ar
  50   25   47 1

#	End of record

