#	Name: ASD01870599
#	Creating user name:	WinNT
#	Creation time:	15. 06. 2019 19:39

#	Modifying user name:	WinNT
#	Modification time:	15. 06. 2019 19:39

#	Program:	/corina/corina34_cracker 3.40 0067  02.08.2006

@<TRIPOS>MOLECULE
ASD01870599
  40   43    0    0    0
SMALL
NO_CHARGES


@<TRIPOS>ATOM
   1 C1             0.0128     1.3588     0.0340 C.ar    
   2 C2             0.0373    -0.0273     0.0303 C.ar    
   3 C3             1.2409    -0.7067     0.0165 C.ar    
   4 C4             2.4403    -0.0116     0.0059 C.ar    
   5 C5             2.4312     1.3739     0.0090 C.ar    
   6 C6             1.2037     2.0669     0.0235 C.ar    
   7 C7             3.4822     2.4133     0.0002 C.2     
   8 N8             2.8905     3.6213     0.0086 N.am    
   9 C9             1.5505     3.5038     0.0240 C.2     
  10 C10            3.5806     4.8440     0.0042 C.ar    
  11 C11            3.9098     5.4508    -1.1998 C.ar    
  12 C12            4.5885     6.6532    -1.2047 C.ar    
  13 C13            4.9426     7.2566    -0.0048 C.ar    
  14 C14            4.6144     6.6505     1.2008 C.ar    
  15 C15            3.9294     5.4497     1.2060 C.ar    
  16 O16            0.7582     4.4242     0.0347 O.2     
  17 O17            4.6796     2.2105    -0.0120 O.2     
  18 N18            5.6306     8.4754    -0.0107 N.am    
  19 C19            5.3921     9.3886     0.9514 C.2     
  20 C20            6.1943    10.6144     1.0138 C.2     
  21 O21            4.5107     9.1958     1.7684 O.2     
  22 C22            6.0584    11.6164     1.9316 C.2     
  23 C23            7.0244    12.5851     1.6174 C.2     
  24 C24            7.6990    12.1377     0.5354 C.2     
  25 O25            7.1998    10.9472     0.1782 O.3     
  26 C26            5.0638    11.6717     3.0624 C.3     
  27 F27            3.6043     4.8622     2.3783 F       
  28 H28           -0.9307     1.8844     0.0407 H       
  29 H29           -0.8905    -0.5800     0.0385 H       
  30 H30            1.2470    -1.7867     0.0145 H       
  31 H31            3.3777    -0.5478    -0.0045 H       
  32 H32            3.6351     4.9822    -2.1332 H       
  33 H33            4.8445     7.1245    -2.1421 H       
  34 H34            4.8903     7.1192     2.1338 H       
  35 H35            6.2791     8.6629    -0.7073 H       
  36 H36            7.1960    13.5136     2.1416 H       
  37 H37            8.5102    12.6529     0.0426 H       
  38 H38            5.4976    11.2125     3.9507 H       
  39 H39            4.8138    12.7110     3.2759 H       
  40 H40            4.1605    11.1317     2.7785 H       
@<TRIPOS>BOND
   1    1    2 ar
   2    1    6 ar
   3    1   28 1
   4    2    3 ar
   5    2   29 1
   6    3    4 ar
   7    3   30 1
   8    4    5 ar
   9    4   31 1
  10    5    7 1
  11    5    6 ar
  12    6    9 1
  13    7    8 am
  14    7   17 2
  15    8    9 am
  16    8   10 1
  17    9   16 2
  18   10   11 ar
  19   10   15 ar
  20   11   12 ar
  21   11   32 1
  22   12   13 ar
  23   12   33 1
  24   13   14 ar
  25   13   18 1
  26   14   15 ar
  27   14   34 1
  28   15   27 1
  29   18   19 am
  30   18   35 1
  31   19   20 1
  32   19   21 2
  33   20   22 2
  34   20   25 1
  35   22   23 1
  36   22   26 1
  37   23   24 2
  38   23   36 1
  39   24   25 1
  40   24   37 1
  41   26   38 1
  42   26   39 1
  43   26   40 1

#	End of record

