#	Name: ASD01890476
#	Creating user name:	WinNT
#	Creation time:	15. 06. 2019 19:51

#	Modifying user name:	WinNT
#	Modification time:	15. 06. 2019 19:51

#	Program:	/corina/corina34_cracker 3.40 0067  02.08.2006

@<TRIPOS>MOLECULE
ASD01890476
  57   60    0    0    0
SMALL
NO_CHARGES


@<TRIPOS>ATOM
   1 C1            -0.0278     1.4536    -0.0221 C.2     
   2 C2            -0.0036    -0.0079    -0.0414 C.2     
   3 C3             1.1747    -0.6626    -0.1146 C.2     
   4 C4             2.4500     0.1053    -0.3495 C.3     
   5 C5             3.0815     0.4689     0.9958 C.3     
   6 O6             1.0140     2.0783     0.0397 O.2     
   7 O7            -1.2054     2.1096    -0.0784 O.3     
   8 C8             0.5966    -2.9319    -0.9117 C.ar    
   9 C9             1.2139    -2.1252     0.0349 C.ar    
  10 C10            1.8779    -2.6983     1.1371 C.ar    
  11 C11            1.9278    -4.0447     1.2952 C.ar    
  12 C12            1.3120    -4.8887     0.3523 C.ar    
  13 C13            1.3524    -6.2853     0.4960 C.ar    
  14 C14            0.7481    -7.0774    -0.4321 C.ar    
  15 C15            0.0871    -6.5244    -1.5273 C.ar    
  16 C16            0.0270    -5.1759    -1.7009 C.ar    
  17 C17            0.6394    -4.3252    -0.7623 C.ar    
  18 C18            6.6994     2.6474     0.3289 C.ar    
  19 C19            5.4876     3.3245     0.4496 C.ar    
  20 C20            4.3228     2.6163     0.6652 C.ar    
  21 C21            4.3567     1.2368     0.7609 C.ar    
  22 C22            5.5570     0.5596     0.6422 C.ar    
  23 C23            6.7278     1.2577     0.4265 C.ar    
  24 C24            7.9541     3.4030     0.0910 C.ar    
  25 C25            9.1659     2.7259    -0.0298 C.ar    
  26 C26           10.3300     3.4337    -0.2510 C.ar    
  27 C27           10.2952     4.8127    -0.3523 C.ar    
  28 C28            9.0951     5.4901    -0.2328 C.ar    
  29 C29            7.9241     4.7918    -0.0181 C.ar    
  30 C30           -1.1544     3.5375    -0.0553 C.3     
  31 C31           -2.5755     4.0998    -0.1265 C.3     
  32 H32           -0.9284    -0.5640     0.0029 H       
  33 H33            3.1441    -0.5096    -0.9224 H       
  34 H34            2.2283     1.0166    -0.9050 H       
  35 H35            2.3874     1.0839     1.5686 H       
  36 H36            3.3032    -0.4423     1.5512 H       
  37 H37            0.0844    -2.4898    -1.7535 H       
  38 H38            2.3534    -2.0578     1.8652 H       
  39 H39            2.4409    -4.4694     2.1454 H       
  40 H40            1.8610    -6.7291     1.3391 H       
  41 H41            0.7818    -8.1508    -0.3179 H       
  42 H42           -0.3840    -7.1754    -2.2489 H       
  43 H43           -0.4886    -4.7610    -2.5543 H       
  44 H44            5.4600     4.4016     0.3751 H       
  45 H45            3.3830     3.1401     0.7589 H       
  46 H46            5.5779    -0.5176     0.7181 H       
  47 H47            7.6643     0.7279     0.3333 H       
  48 H48            9.1943     1.6492     0.0499 H       
  49 H49           11.2698     2.9099    -0.3447 H       
  50 H50           11.2085     5.3627    -0.5251 H       
  51 H51            9.0737     6.5669    -0.3124 H       
  52 H52            6.9868     5.3212     0.0699 H       
  53 H53           -0.6782     3.8692     0.8673 H       
  54 H54           -0.5792     3.8943    -0.9097 H       
  55 H55           -2.5366     5.1889    -0.1090 H       
  56 H56           -3.0517     3.7681    -1.0492 H       
  57 H57           -3.1507     3.7429     0.7278 H       
@<TRIPOS>BOND
   1    1    2 1
   2    1    6 2
   3    1    7 1
   4    2    3 2
   5    2   32 1
   6    3    4 1
   7    3    9 1
   8    4    5 1
   9    4   33 1
  10    4   34 1
  11    5   21 1
  12    5   35 1
  13    5   36 1
  14    7   30 1
  15    8    9 ar
  16    8   17 ar
  17    8   37 1
  18    9   10 ar
  19   10   11 ar
  20   10   38 1
  21   11   12 ar
  22   11   39 1
  23   12   13 ar
  24   12   17 ar
  25   13   14 ar
  26   13   40 1
  27   14   15 ar
  28   14   41 1
  29   15   16 ar
  30   15   42 1
  31   16   17 ar
  32   16   43 1
  33   18   19 ar
  34   18   23 ar
  35   18   24 1
  36   19   20 ar
  37   19   44 1
  38   20   21 ar
  39   20   45 1
  40   21   22 ar
  41   22   23 ar
  42   22   46 1
  43   23   47 1
  44   24   25 ar
  45   24   29 ar
  46   25   26 ar
  47   25   48 1
  48   26   27 ar
  49   26   49 1
  50   27   28 ar
  51   27   50 1
  52   28   29 ar
  53   28   51 1
  54   29   52 1
  55   30   31 1
  56   30   53 1
  57   30   54 1
  58   31   55 1
  59   31   56 1
  60   31   57 1

#	End of record

