#	Name: ASD01310006
#	Creating user name:	WinNT
#	Creation time:	15. 06. 2019 19:15

#	Modifying user name:	WinNT
#	Modification time:	15. 06. 2019 19:15

#	Program:	/corina/corina34_cracker 3.40 0067  02.08.2006

@<TRIPOS>MOLECULE
ASD01310006
  64   67    0    0    0
SMALL
NO_CHARGES


@<TRIPOS>ATOM
   1 N1            -0.0181     1.4829     0.0102 N.3     
   2 C2             0.0021    -0.0041     0.0020 C.3     
   3 C3            -1.4265    -0.4807     0.3097 C.3     
   4 C4            -2.3543    -0.0292    -0.8219 C.3     
   5 C5            -2.2208     1.4823    -1.0278 C.3     
   6 C6            -0.7384     1.8259    -1.2449 C.3     
   7 C7            -0.1720     0.8376    -2.2902 C.3     
   8 C8             0.3173    -0.3717    -1.4663 C.3     
   9 O9            -3.7278    -0.3503    -0.4775 O.3     
  10 C10           -4.5648    -0.6148    -1.4930 C.2     
  11 O11           -4.1631    -0.5793    -2.6319 O.2     
  12 C12           -8.1764    -1.5526    -2.2522 C.2     
  13 O13           -9.0134    -1.8171    -3.2676 O.3     
  14 O14           -8.5781    -1.5882    -1.1132 O.2     
  15 C15          -10.9678    -3.0864    -3.9761 C.3     
  16 C16          -10.3869    -2.1382    -2.9232 C.3     
  17 C17          -11.2142    -0.8505    -2.8746 C.3     
  18 C18          -12.6912    -1.2159    -2.6563 C.3     
  19 N19          -13.1358    -1.9852    -3.8489 N.3     
  20 C20          -12.4615    -3.3003    -3.6833 C.3     
  21 C21          -12.6076    -3.6150    -2.1766 C.3     
  22 C22          -12.7594    -2.2377    -1.4981 C.3     
  23 C23            1.3460     2.0280     0.0001 C.3     
  24 C24          -14.5966    -2.1404    -3.8607 C.3     
  25 C25           -6.0056    -0.9562    -1.2125 C.3     
  26 C26           -6.7356    -1.2113    -2.5327 C.3     
  27 C27            1.2902     3.5377    -0.2418 C.3     
  28 C28          -15.0380    -2.7104    -5.2102 C.3     
  29 H29            0.7305    -0.4106     0.7036 H       
  30 H30           -1.4409    -1.5683     0.3816 H       
  31 H31           -1.7614    -0.0463     1.2516 H       
  32 H32           -2.0818    -0.5460    -1.7421 H       
  33 H33           -2.7973     1.7840    -1.9023 H       
  34 H34           -2.5914     2.0051    -0.1460 H       
  35 H35           -0.5961     2.8682    -1.5304 H       
  36 H36           -0.9537     0.5315    -2.9854 H       
  37 H37            0.6599     1.2909    -2.8291 H       
  38 H38            1.3898    -0.5128    -1.6001 H       
  39 H39           -0.2238    -1.2723    -1.7564 H       
  40 H40          -10.8492    -2.6482    -4.9671 H       
  41 H41          -10.4467    -4.0428    -3.9332 H       
  42 H42          -10.4114    -2.6220    -1.9467 H       
  43 H43          -10.8676    -0.2247    -2.0522 H       
  44 H44          -11.1067    -0.3117    -3.8160 H       
  45 H45          -13.3080    -0.3372    -2.4676 H       
  46 H46          -12.8982    -4.0707    -4.3187 H       
  47 H47          -13.4941    -4.2243    -2.0007 H       
  48 H48          -11.7172    -4.1238    -1.8073 H       
  49 H49          -11.9435    -2.0693    -0.7951 H       
  50 H50          -13.7205    -2.1698    -0.9884 H       
  51 H51            1.8230     1.8312     0.9602 H       
  52 H52            1.9209     1.5536    -0.7952 H       
  53 H53          -14.8961    -2.8206    -3.0634 H       
  54 H54          -15.0664    -1.1692    -3.7054 H       
  55 H55           -6.0528    -1.8513    -0.5923 H       
  56 H56           -6.4804    -0.1262    -0.6892 H       
  57 H57           -6.2608    -2.0413    -3.0559 H       
  58 H58           -6.6884    -0.3162    -3.1528 H       
  59 H59            0.8132     3.7345    -1.2019 H       
  60 H60            0.7153     4.0121     0.5536 H       
  61 H61            2.3024     3.9421    -0.2493 H       
  62 H62          -14.7384    -2.0302    -6.0075 H       
  63 H63          -14.5682    -3.6816    -5.3655 H       
  64 H64          -16.1218    -2.8256    -5.2189 H       
@<TRIPOS>BOND
   1    1    2 1
   2    1   23 1
   3    1    6 1
   4    2    3 1
   5    2    8 1
   6    2   29 1
   7    3    4 1
   8    3   30 1
   9    3   31 1
  10    4    5 1
  11    4    9 1
  12    4   32 1
  13    5    6 1
  14    5   33 1
  15    5   34 1
  16    6    7 1
  17    6   35 1
  18    7    8 1
  19    7   36 1
  20    7   37 1
  21    8   38 1
  22    8   39 1
  23    9   10 1
  24   10   11 2
  25   10   25 1
  26   12   13 1
  27   12   14 2
  28   12   26 1
  29   13   16 1
  30   15   16 1
  31   15   20 1
  32   15   40 1
  33   15   41 1
  34   16   17 1
  35   16   42 1
  36   17   18 1
  37   17   43 1
  38   17   44 1
  39   18   22 1
  40   18   19 1
  41   18   45 1
  42   19   20 1
  43   19   24 1
  44   20   21 1
  45   20   46 1
  46   21   22 1
  47   21   47 1
  48   21   48 1
  49   22   49 1
  50   22   50 1
  51   23   27 1
  52   23   51 1
  53   23   52 1
  54   24   28 1
  55   24   53 1
  56   24   54 1
  57   25   26 1
  58   25   55 1
  59   25   56 1
  60   26   57 1
  61   26   58 1
  62   27   59 1
  63   27   60 1
  64   27   61 1
  65   28   62 1
  66   28   63 1
  67   28   64 1

#	End of record

