#	Name: ASD01910700
#	Creating user name:	WinNT
#	Creation time:	15. 06. 2019 19:56

#	Modifying user name:	WinNT
#	Modification time:	15. 06. 2019 19:56

#	Program:	/corina/corina34_cracker 3.40 0067  02.08.2006

@<TRIPOS>MOLECULE
ASD01910700
  53   56    0    0    0
SMALL
NO_CHARGES


@<TRIPOS>ATOM
   1 C1            12.4812    -1.9057     4.2719 C.ar    
   2 C2            13.1011    -2.0694     3.0404 C.ar    
   3 C3            12.3917    -1.7499     1.8965 C.ar    
   4 C4            11.0889    -1.2781     2.0182 C.ar    
   5 N5            10.5325    -1.1352     3.2114 N.ar    
   6 C6            11.1850    -1.4324     4.3190 C.ar    
   7 N7            10.3646    -0.9532     0.8771 N.3     
   8 C8             9.0191    -0.4774     1.2253 C.3     
   9 C9             8.3208     0.0388    -0.0373 C.3     
  10 N10            8.3616    -1.0182    -1.0592 N.am    
  11 C11            9.6585    -1.6411    -1.3647 C.3     
  12 C12           10.3041    -2.0912    -0.0498 C.3     
  13 C13            7.2404    -1.4055    -1.6989 C.2     
  14 C14            7.3210    -2.3785    -2.8064 C.ar    
  15 O15            6.1625    -0.9537    -1.3641 O.2     
  16 C16            6.3464    -3.3726    -2.9362 C.ar    
  17 C17            6.4169    -4.2835    -3.9682 C.ar    
  18 C18            7.4551    -4.2210    -4.8860 C.ar    
  19 C19            8.4400    -3.2269    -4.7659 C.ar    
  20 C20            8.3661    -2.3027    -3.7265 C.ar    
  21 C21            9.5134    -3.1608    -5.7115 C.1     
  22 C22           10.3934    -3.1065    -6.4867 C.1     
  23 C23           11.4668    -3.0404    -7.4322 C.ar    
  24 O24            7.5195    -5.1204    -5.8993 O.3     
  25 C25            6.4848    -6.1040    -5.9603 C.3     
  26 C26           12.4466    -2.0516    -7.3130 C.ar    
  27 C27           13.4800    -1.9933    -8.2282 C.ar    
  28 C28           13.5455    -2.9126    -9.2629 C.ar    
  29 C29           12.5766    -3.8953    -9.3868 C.ar    
  30 C30           11.5417    -3.9679    -8.4744 C.ar    
  31 F31           14.4283    -1.0378    -8.1143 F       
  32 F32           12.6471    -4.7877   -10.3986 F       
  33 H33           13.0060    -2.1502     5.1836 H       
  34 H34           14.1144    -2.4376     2.9770 H       
  35 H35           12.8435    -1.8649     0.9223 H       
  36 H36           10.6991    -1.3032     5.2748 H       
  37 H37            8.4417    -1.2984     1.6503 H       
  38 H38            9.0959     0.3294     1.9542 H       
  39 H39            7.2844     0.2861     0.1926 H       
  40 H40            8.8384     0.9245    -0.4058 H       
  41 H41            9.5065    -2.5045    -2.0124 H       
  42 H42           10.3047    -0.9169    -1.8608 H       
  43 H43           11.3128    -2.4548    -0.2457 H       
  44 H44            9.7088    -2.8898     0.3930 H       
  45 H45            5.5355    -3.4272    -2.2250 H       
  46 H46            5.6609    -5.0490    -4.0625 H       
  47 H47            9.1201    -1.5358    -3.6284 H       
  48 H48            6.4901    -6.6943    -5.0440 H       
  49 H49            5.5194    -5.6097    -6.0684 H       
  50 H50            6.6555    -6.7585    -6.8151 H       
  51 H51           12.3962    -1.3341    -6.5074 H       
  52 H52           14.3551    -2.8627    -9.9760 H       
  53 H53           10.7870    -4.7343    -8.5720 H       
@<TRIPOS>BOND
   1    1    2 ar
   2    1    6 ar
   3    1   33 1
   4    2    3 ar
   5    2   34 1
   6    3    4 ar
   7    3   35 1
   8    4    5 ar
   9    4    7 1
  10    5    6 ar
  11    6   36 1
  12    7    8 1
  13    7   12 1
  14    8    9 1
  15    8   37 1
  16    8   38 1
  17    9   10 1
  18    9   39 1
  19    9   40 1
  20   10   11 1
  21   10   13 am
  22   11   12 1
  23   11   41 1
  24   11   42 1
  25   12   43 1
  26   12   44 1
  27   13   14 1
  28   13   15 2
  29   14   16 ar
  30   14   20 ar
  31   16   17 ar
  32   16   45 1
  33   17   18 ar
  34   17   46 1
  35   18   19 ar
  36   18   24 1
  37   19   20 ar
  38   19   21 1
  39   20   47 1
  40   21   22 3
  41   22   23 1
  42   23   26 ar
  43   23   30 ar
  44   24   25 1
  45   25   48 1
  46   25   49 1
  47   25   50 1
  48   26   27 ar
  49   26   51 1
  50   27   28 ar
  51   27   31 1
  52   28   29 ar
  53   28   52 1
  54   29   30 ar
  55   29   32 1
  56   30   53 1

#	End of record

