#	Name: ASD04881274
#	Creating user name:	WinNT
#	Creation time:	15. 06. 2019 20:53

#	Modifying user name:	WinNT
#	Modification time:	15. 06. 2019 20:53

#	Program:	/corina/corina34_cracker 3.40 0067  02.08.2006

@<TRIPOS>MOLECULE
ASD04881274
  80   85    0    0    0
SMALL
NO_CHARGES


@<TRIPOS>ATOM
   1 C1             0.2334     1.4932    -0.1473 C.ar    
   2 C2             0.0363     0.1113    -0.0710 C.ar    
   3 C3             1.1248    -0.7515    -0.1187 C.ar    
   4 C4             2.4015    -0.2486    -0.2413 C.ar    
   5 C5             2.6056     1.1317    -0.3176 C.ar    
   6 C6             1.5122     2.0017    -0.2703 C.ar    
   7 N7            -0.8654     2.3616    -0.1049 N.am    
   8 C8            -0.7478     3.5691     0.4821 C.2     
   9 O9             0.2777     3.8642     1.0659 O.2     
  10 C10           -1.8618     4.5321     0.4167 C.2     
  11 C11           -1.8848     5.7802     0.9591 C.2     
  12 O12           -3.0821     6.3123     0.6661 O.3     
  13 C13           -3.7796     5.4116    -0.0405 C.2     
  14 N14           -3.0586     4.3428    -0.2024 N.2     
  15 N15           -1.2524    -0.4014     0.0534 N.3     
  16 C16           -1.8451    -0.0285     1.3454 C.3     
  17 C17           -3.2855    -0.5418     1.4100 C.3     
  18 N18           -3.2913    -2.0006     1.2326 N.3     
  19 C19           -2.6986    -2.3735    -0.0594 C.3     
  20 C20           -1.2582    -1.8602    -0.1240 C.3     
  21 C21           -4.5709    -2.5097     1.3561 C.ar    
  22 C22           -5.1768     5.6099    -0.5693 C.3     
  23 C23           -6.2852     5.8849     0.4489 C.3     
  24 C24           -5.7824     7.0105    -0.4572 C.3     
  25 C25            3.9729     1.6700    -0.4479 C.2     
  26 N26            5.0263     0.8305    -0.4934 N.am    
  27 O27            4.1496     2.8713    -0.5142 O.2     
  28 C28            6.3841     1.3651    -0.6227 C.3     
  29 C29            7.3866     0.2097    -0.6504 C.3     
  30 C30            8.8047     0.7680    -0.7855 C.3     
  31 N31            9.7647    -0.3383    -0.8121 N.am    
  32 C32           10.1757    -0.9591    -1.9312 C.2     
  33 C33           11.1578    -2.0570    -1.5864 C.3     
  34 C34           10.9604    -2.2795    -0.0690 C.3     
  35 C35           10.4058    -0.9071     0.3793 C.3     
  36 O36            9.8119    -0.6800    -3.0540 O.2     
  37 C37           -4.7686    -3.7663     1.9539 C.ar    
  38 C38           -6.0728    -4.2606     2.0677 C.ar    
  39 C39           -7.1136    -3.4870     1.5847 C.ar    
  40 C40           -6.8397    -2.2594     1.0087 C.ar    
  41 N41           -5.6039    -1.8085     0.9156 N.ar    
  42 C42           -3.6230    -4.5496     2.4514 C.2     
  43 O43           -2.5055    -4.0704     2.4342 O.2     
  44 N44           -3.8142    -5.7967     2.9253 N.am    
  45 H45            0.9695    -1.8186    -0.0592 H       
  46 H46            3.2453    -0.9216    -0.2781 H       
  47 H47            1.6669     3.0689    -0.3298 H       
  48 H48           -1.7107     2.0938    -0.4981 H       
  49 H49           -1.0910     6.2525     1.5188 H       
  50 H50           -1.2641    -0.4726     2.1537 H       
  51 H51           -1.8408     1.0567     1.4477 H       
  52 H52           -3.7176    -0.2916     2.3788 H       
  53 H53           -3.8731    -0.0769     0.6183 H       
  54 H54           -2.7028    -3.4587    -0.1618 H       
  55 H55           -3.2795    -1.9294    -0.8677 H       
  56 H56           -0.8260    -2.1104    -1.0929 H       
  57 H57           -0.6706    -2.3251     0.6676 H       
  58 H58           -5.4355     5.0182    -1.4474 H       
  59 H59           -7.2732     5.4743     0.2405 H       
  60 H60           -6.0038     5.9223     1.5013 H       
  61 H61           -5.1703     7.7885    -0.0009 H       
  62 H62           -6.4396     7.3405    -1.2617 H       
  63 H63            4.8853    -0.1278    -0.4404 H       
  64 H64            6.4629     1.9368    -1.5474 H       
  65 H65            6.6013     2.0143     0.2255 H       
  66 H66            7.3078    -0.3620     0.2743 H       
  67 H67            7.1694    -0.4396    -1.4986 H       
  68 H68            8.8835     1.3397    -1.7102 H       
  69 H69            9.0219     1.4173     0.0626 H       
  70 H70           10.9226    -2.9665    -2.1391 H       
  71 H71           12.1781    -1.7355    -1.7953 H       
  72 H72           10.2400    -3.0757     0.1180 H       
  73 H73           11.9106    -2.4922     0.4209 H       
  74 H74           11.2168    -0.2612     0.7159 H       
  75 H75            9.6730    -1.0394     1.1752 H       
  76 H76           -6.2625    -5.2223     2.5210 H       
  77 H77           -8.1320    -3.8391     1.6566 H       
  78 H78           -7.6535    -1.6572     0.6324 H       
  79 H79           -4.7056    -6.1790     2.9390 H       
  80 H80           -3.0604    -6.3121     3.2526 H       
@<TRIPOS>BOND
   1    1    2 ar
   2    1    6 ar
   3    1    7 1
   4    2    3 ar
   5    2   15 1
   6    3    4 ar
   7    3   45 1
   8    4    5 ar
   9    4   46 1
  10    5    6 ar
  11    5   25 1
  12    6   47 1
  13    7    8 am
  14    7   48 1
  15    8    9 2
  16    8   10 1
  17   10   11 2
  18   10   14 1
  19   11   12 1
  20   11   49 1
  21   12   13 1
  22   13   14 2
  23   13   22 1
  24   15   16 1
  25   15   20 1
  26   16   17 1
  27   16   50 1
  28   16   51 1
  29   17   18 1
  30   17   52 1
  31   17   53 1
  32   18   19 1
  33   18   21 1
  34   19   20 1
  35   19   54 1
  36   19   55 1
  37   20   56 1
  38   20   57 1
  39   21   37 ar
  40   21   41 ar
  41   22   23 1
  42   22   24 1
  43   22   58 1
  44   23   24 1
  45   23   59 1
  46   23   60 1
  47   24   61 1
  48   24   62 1
  49   25   26 am
  50   25   27 2
  51   26   28 1
  52   26   63 1
  53   28   29 1
  54   28   64 1
  55   28   65 1
  56   29   30 1
  57   29   66 1
  58   29   67 1
  59   30   31 1
  60   30   68 1
  61   30   69 1
  62   31   32 am
  63   31   35 1
  64   32   33 1
  65   32   36 2
  66   33   34 1
  67   33   70 1
  68   33   71 1
  69   34   35 1
  70   34   72 1
  71   34   73 1
  72   35   74 1
  73   35   75 1
  74   37   38 ar
  75   37   42 1
  76   38   39 ar
  77   38   76 1
  78   39   40 ar
  79   39   77 1
  80   40   41 ar
  81   40   78 1
  82   42   43 2
  83   42   44 am
  84   44   79 1
  85   44   80 1

#	End of record

