#	Name: ASD01914047
#	Creating user name:	WinNT
#	Creation time:	15. 06. 2019 20:02

#	Modifying user name:	WinNT
#	Modification time:	15. 06. 2019 20:02

#	Program:	/corina/corina34_cracker 3.40 0067  02.08.2006

@<TRIPOS>MOLECULE
ASD01914047
  39   41    0    0    0
SMALL
NO_CHARGES


@<TRIPOS>ATOM
   1 C1             0.0522     1.1883    -0.6458 C.ar    
   2 C2             0.0801    -0.1782    -0.4366 C.ar    
   3 C3             1.2843    -0.8224    -0.2206 C.ar    
   4 C4             2.4376     1.2693    -0.4230 C.ar    
   5 C5             1.2280     1.9133    -0.6395 C.ar    
   6 O6             3.5956     1.9805    -0.4159 O.3     
   7 C7             4.8032     1.2515    -0.1867 C.3     
   8 C8             5.9748     2.1990    -0.2139 C.ar    
   9 N9             7.1930     1.7301    -0.0229 N.ar    
  10 C10            8.2505     2.5147    -0.0373 C.ar    
  11 C11            8.1139     3.8857    -0.2580 C.ar    
  12 C12            6.8331     4.4132    -0.4640 C.ar    
  13 C13            5.7557     3.5455    -0.4444 C.ar    
  14 C14            9.3008     4.7664    -0.2736 C.2     
  15 N15           10.5282     4.2468    -0.0736 N.am    
  16 O16            9.1700     5.9594    -0.4668 O.2     
  17 C17            2.4629    -0.1018    -0.2133 C.ar    
  18 C18           11.6591     5.0616    -0.1851 C.ar    
  19 C19           11.6053     6.3861     0.2287 C.ar    
  20 C20           13.8996     6.6757    -0.4055 C.ar    
  21 C21           13.9571     5.3536    -0.8133 C.ar    
  22 C22           12.8393     4.5459    -0.7044 C.ar    
  23 F23           15.1038     4.8539    -1.3236 F       
  24 C24           12.7255     7.1904     0.1179 C.ar    
  25 F25           12.6737     8.4791     0.5203 F       
  26 H26           -0.8892     1.6885    -0.8188 H       
  27 H27           -0.8403    -0.7432    -0.4415 H       
  28 H28            1.3034    -1.8898    -0.0570 H       
  29 H29            1.2057     2.9806    -0.8034 H       
  30 H30            4.7536     0.7629     0.7864 H       
  31 H31            4.9265     0.4988    -0.9654 H       
  32 H32            9.2319     2.0935     0.1235 H       
  33 H33            6.6905     5.4696    -0.6378 H       
  34 H34            4.7534     3.9165    -0.5999 H       
  35 H35           10.6270     3.3075     0.1477 H       
  36 H36            3.4032    -0.6055    -0.0445 H       
  37 H37           10.6896     6.7882     0.6363 H       
  38 H38           14.7733     7.3048    -0.4909 H       
  39 H39           12.8845     3.5148    -1.0226 H       
@<TRIPOS>BOND
   1    1    2 ar
   2    1    5 ar
   3    1   26 1
   4    2    3 ar
   5    2   27 1
   6    3   17 ar
   7    3   28 1
   8    4    5 ar
   9    4    6 1
  10    4   17 ar
  11    5   29 1
  12    6    7 1
  13    7    8 1
  14    7   30 1
  15    7   31 1
  16    8    9 ar
  17    8   13 ar
  18    9   10 ar
  19   10   11 ar
  20   10   32 1
  21   11   12 ar
  22   11   14 1
  23   12   13 ar
  24   12   33 1
  25   13   34 1
  26   14   15 am
  27   14   16 2
  28   15   18 1
  29   15   35 1
  30   17   36 1
  31   18   19 ar
  32   18   22 ar
  33   19   24 ar
  34   19   37 1
  35   20   21 ar
  36   20   24 ar
  37   20   38 1
  38   21   22 ar
  39   21   23 1
  40   22   39 1
  41   24   25 1

#	End of record

