#	Name: ASD03331459
#	Creating user name:	WinNT
#	Creation time:	15. 06. 2019 20:39

#	Modifying user name:	WinNT
#	Modification time:	15. 06. 2019 20:39

#	Program:	/corina/corina34_cracker 3.40 0067  02.08.2006

@<TRIPOS>MOLECULE
ASD03331459
  43   45    0    0    0
SMALL
NO_CHARGES


@<TRIPOS>ATOM
   1 N1             0.0545     1.4378    -0.0239 N.pl3   
   2 C2            -0.0594     0.0929    -0.0398 C.2     
   3 C3             1.2089    -0.4481    -0.0062 C.2     
   4 C4             2.1221     0.6384     0.0316 C.2     
   5 C5             1.3861     1.7790     0.0198 C.2     
   6 C6             1.5506    -1.8793    -0.0086 C.2     
   7 O7             0.6684    -2.7147    -0.0428 O.2     
   8 O8             2.8419    -2.2639     0.0271 O.3     
   9 C9            -1.3501    -0.6838    -0.0855 C.3     
  10 C10           -1.7439    -0.9332    -1.5428 C.3     
  11 C11           -3.0542    -1.7217    -1.5892 C.3     
  12 O12           -3.4220    -1.9547    -2.9502 O.3     
  13 C13            1.9250     3.1558     0.0489 C.ar    
  14 C14            2.8920     3.5105     0.9923 C.ar    
  15 C15            3.3913     4.7973     1.0138 C.ar    
  16 C16            2.9348     5.7350     0.1029 C.ar    
  17 C17            1.9764     5.3886    -0.8343 C.ar    
  18 C18            1.4739     4.1041    -0.8696 C.ar    
  19 Cl19           3.5664     7.3517     0.1366 Cl      
  20 Cl20           3.4641     2.3360     2.1356 Cl      
  21 C21           -1.0147     2.3433    -0.0534 C.ar    
  22 C22           -1.3019     3.1167     1.0634 C.ar    
  23 C23           -2.3562     4.0083     1.0319 C.ar    
  24 C24           -3.1261     4.1311    -0.1114 C.ar    
  25 C25           -2.8419     3.3614    -1.2258 C.ar    
  26 C26           -1.7851     2.4725    -1.2012 C.ar    
  27 Cl27          -4.4510     5.2523    -0.1477 Cl      
  28 H28            3.1995     0.5704     0.0641 H       
  29 H29            3.0170    -3.2149     0.0239 H       
  30 H30           -1.2179    -1.6384     0.4236 H       
  31 H31           -2.1353    -0.1131     0.4105 H       
  32 H32           -1.8761     0.0215    -2.0519 H       
  33 H33           -0.9587    -1.5038    -2.0388 H       
  34 H34           -2.9220    -2.6764    -1.0800 H       
  35 H35           -3.8394    -1.1511    -1.0932 H       
  36 H36           -4.2454    -2.4507    -3.0558 H       
  37 H37            4.1390     5.0733     1.7426 H       
  38 H38            1.6241     6.1245    -1.5419 H       
  39 H39            0.7296     3.8344    -1.6042 H       
  40 H40           -0.7016     3.0209     1.9560 H       
  41 H41           -2.5802     4.6098     1.9004 H       
  42 H42           -3.4441     3.4590    -2.1169 H       
  43 H43           -1.5609     1.8752    -2.0727 H       
@<TRIPOS>BOND
   1    1    2 1
   2    1    5 1
   3    1   21 1
   4    2    3 2
   5    2    9 1
   6    3    4 1
   7    3    6 1
   8    4    5 2
   9    4   28 1
  10    5   13 1
  11    6    7 2
  12    6    8 1
  13    8   29 1
  14    9   10 1
  15    9   30 1
  16    9   31 1
  17   10   11 1
  18   10   32 1
  19   10   33 1
  20   11   12 1
  21   11   34 1
  22   11   35 1
  23   12   36 1
  24   13   14 ar
  25   13   18 ar
  26   14   15 ar
  27   14   20 1
  28   15   16 ar
  29   15   37 1
  30   16   17 ar
  31   16   19 1
  32   17   18 ar
  33   17   38 1
  34   18   39 1
  35   21   22 ar
  36   21   26 ar
  37   22   23 ar
  38   22   40 1
  39   23   24 ar
  40   23   41 1
  41   24   25 ar
  42   24   27 1
  43   25   26 ar
  44   25   42 1
  45   26   43 1

#	End of record

