#	Name: ASD01880431
#	Creating user name:	WinNT
#	Creation time:	15. 06. 2019 19:40

#	Modifying user name:	WinNT
#	Modification time:	15. 06. 2019 19:40

#	Program:	/corina/corina34_cracker 3.40 0067  02.08.2006

@<TRIPOS>MOLECULE
ASD01880431
  53   57    0    0    0
SMALL
NO_CHARGES


@<TRIPOS>ATOM
   1 C1            -0.0169     1.3927     0.0097 C.ar    
   2 C2             0.0021    -0.0041     0.0020 C.ar    
   3 C3             1.2135    -0.6907    -0.0132 C.ar    
   4 C4             2.4022     0.0193    -0.0208 C.ar    
   5 C5             2.3727     1.4246    -0.0130 C.ar    
   6 C6             1.1522     2.0999     0.0023 C.ar    
   7 N7             3.6286    -0.6376    -0.0355 N.pl3   
   8 C8             4.7929     0.0687    -0.0425 C.2     
   9 N9             4.8015     1.4562    -0.0353 N.am    
  10 C10            3.6502     2.1585    -0.0210 C.2     
  11 N11            3.9493    -2.0026    -0.0451 N.2     
  12 C12            5.2606    -2.1201    -0.0575 C.2     
  13 C13            5.8179    -0.8301    -0.0562 C.2     
  14 C14            6.0812     2.1693    -0.0435 C.3     
  15 O15            3.6662     3.3751    -0.0147 O.2     
  16 C16           -1.2742    -0.7594     0.0106 C.ar    
  17 C17            6.0195    -3.3954    -0.0699 C.ar    
  18 C18            5.3413    -4.6114    -0.0695 C.ar    
  19 C19            6.0554    -5.7985    -0.0816 C.ar    
  20 C20            7.4430    -5.7738    -0.0936 C.ar    
  21 C21            8.1168    -4.5666    -0.0940 C.ar    
  22 C22            7.4131    -3.3792    -0.0878 C.ar    
  23 C23           -1.2623    -2.1530     0.0030 C.ar    
  24 C24           -2.4532    -2.8507     0.0116 C.ar    
  25 C25           -3.6567    -2.1694     0.0277 C.ar    
  26 C26           -3.6746    -0.7860     0.0353 C.ar    
  27 C27           -2.4903    -0.0781     0.0322 C.ar    
  28 O28            5.3970    -6.9875    -0.0813 O.3     
  29 C29            6.1965    -8.1718    -0.0941 C.3     
  30 S30           -5.2127     0.0734     0.0552 S.o2    
  31 O31           -4.9588     1.3630    -0.4849 O.2     
  32 O32           -6.1780    -0.8190    -0.4844 O.2     
  33 N33           -5.6249     0.3039     1.6424 N.am    
  34 H34           -0.9612     1.9167     0.0170 H       
  35 H35            1.2257    -1.7706    -0.0188 H       
  36 H36            1.1314     3.1797     0.0087 H       
  37 H37            6.8715    -0.5928    -0.0646 H       
  38 H38            6.3890     2.3516    -1.0731 H       
  39 H39            5.9701     3.1209     0.4764 H       
  40 H40            6.8365     1.5661     0.4602 H       
  41 H41            4.2615    -4.6291    -0.0595 H       
  42 H42            7.9980    -6.7002    -0.1023 H       
  43 H43            9.1967    -4.5526    -0.1034 H       
  44 H44            7.9423    -2.4377    -0.0882 H       
  45 H45           -0.3230    -2.6860    -0.0099 H       
  46 H46           -2.4452    -3.9306     0.0054 H       
  47 H47           -4.5862    -2.7195     0.0340 H       
  48 H48           -2.5054     1.0018     0.0385 H       
  49 H49            6.8176    -8.1812    -0.9898 H       
  50 H50            6.8337    -8.1896     0.7901 H       
  51 H51            5.5481    -9.0479    -0.0924 H       
  52 H52           -5.0427    -0.0212     2.3469 H       
  53 H53           -6.4485     0.7642     1.8677 H       
@<TRIPOS>BOND
   1    1    2 ar
   2    1    6 ar
   3    1   34 1
   4    2    3 ar
   5    2   16 1
   6    3    4 ar
   7    3   35 1
   8    4    5 ar
   9    4    7 1
  10    5    6 ar
  11    5   10 1
  12    6   36 1
  13    7    8 1
  14    7   11 1
  15    8    9 1
  16    8   13 2
  17    9   10 am
  18    9   14 1
  19   10   15 2
  20   11   12 2
  21   12   13 1
  22   12   17 1
  23   13   37 1
  24   14   38 1
  25   14   39 1
  26   14   40 1
  27   16   23 ar
  28   16   27 ar
  29   17   18 ar
  30   17   22 ar
  31   18   19 ar
  32   18   41 1
  33   19   20 ar
  34   19   28 1
  35   20   21 ar
  36   20   42 1
  37   21   22 ar
  38   21   43 1
  39   22   44 1
  40   23   24 ar
  41   23   45 1
  42   24   25 ar
  43   24   46 1
  44   25   26 ar
  45   25   47 1
  46   26   27 ar
  47   26   30 1
  48   27   48 1
  49   28   29 1
  50   29   49 1
  51   29   50 1
  52   29   51 1
  53   30   31 2
  54   30   32 2
  55   30   33 am
  56   33   52 1
  57   33   53 1

#	End of record

