#	Name: ASD01911386
#	Creating user name:	WinNT
#	Creation time:	15. 06. 2019 19:57

#	Modifying user name:	WinNT
#	Modification time:	15. 06. 2019 19:57

#	Program:	/corina/corina34_cracker 3.40 0067  02.08.2006

@<TRIPOS>MOLECULE
ASD01911386
  44   46    0    0    0
SMALL
NO_CHARGES


@<TRIPOS>ATOM
   1 N1            -0.0168     1.3840     0.0097 N.am    
   2 C2             0.0021    -0.0041     0.0020 C.ar    
   3 N3            -1.1476    -0.6623     0.0095 N.ar    
   4 C4            -1.1737    -1.9826     0.0022 C.ar    
   5 C5             0.0384    -2.6856    -0.0136 C.ar    
   6 C6             1.2311    -1.9499    -0.0211 C.ar    
   7 N7             1.1692    -0.6308    -0.0180 N.ar    
   8 C8             0.0579    -4.1174    -0.0215 C.1     
   9 C9             0.0738    -5.2913    -0.0280 C.1     
  10 C10            0.0932    -6.7232    -0.0359 C.ar    
  11 C11            1.3108    -7.4087    -0.0517 C.ar    
  12 C12           -1.0787    -8.8206    -0.0298 C.ar    
  13 C13           -1.1053    -7.4417    -0.0221 C.ar    
  14 C14            1.3216    -8.7879    -0.0592 C.ar    
  15 C15            0.1308    -9.4926    -0.0513 C.ar    
  16 C16            1.2570     2.0988     0.0013 C.3     
  17 C17           -1.2003     2.0065     0.0188 C.2     
  18 O18           -1.3253     3.3417     0.0707 O.3     
  19 C19           -0.1491     4.1323    -0.2555 C.3     
  20 C20            1.0519     3.5356     0.4897 C.3     
  21 O21            0.7929     3.5317     1.8950 O.3     
  22 C22            1.9650     3.6590     2.7024 C.3     
  23 C23            0.1066     4.0802    -1.7631 C.3     
  24 C24           -0.3633     5.5823     0.1831 C.3     
  25 O25           -2.2097     1.3317    -0.0222 O.2     
  26 H26           -2.1148    -2.5125     0.0087 H       
  27 H27            2.1862    -2.4539    -0.0328 H       
  28 H28            2.2410    -6.8600    -0.0583 H       
  29 H29           -2.0042    -9.3772    -0.0188 H       
  30 H30           -2.0499    -6.9185    -0.0050 H       
  31 H31            2.2619    -9.3191    -0.0718 H       
  32 H32            0.1454   -10.5725    -0.0569 H       
  33 H33            1.9619     1.5901     0.6589 H       
  34 H34            1.6566     2.1147    -1.0127 H       
  35 H35            1.9437     4.1269     0.2818 H       
  36 H36            2.6395     2.8276     2.4973 H       
  37 H37            2.4658     4.5989     2.4703 H       
  38 H38            1.6839     3.6475     3.7555 H       
  39 H39           -0.7572     4.4828    -2.2923 H       
  40 H40            0.9887     4.6739    -2.0028 H       
  41 H41            0.2703     3.0467    -2.0683 H       
  42 H42           -0.5331     5.6150     1.2593 H       
  43 H43            0.5204     6.1708    -0.0633 H       
  44 H44           -1.2299     5.9941    -0.3341 H       
@<TRIPOS>BOND
   1    1    2 1
   2    1   16 1
   3    1   17 am
   4    2    3 ar
   5    2    7 ar
   6    3    4 ar
   7    4    5 ar
   8    4   26 1
   9    5    6 ar
  10    5    8 1
  11    6    7 ar
  12    6   27 1
  13    8    9 3
  14    9   10 1
  15   10   11 ar
  16   10   13 ar
  17   11   14 ar
  18   11   28 1
  19   12   13 ar
  20   12   15 ar
  21   12   29 1
  22   13   30 1
  23   14   15 ar
  24   14   31 1
  25   15   32 1
  26   16   20 1
  27   16   33 1
  28   16   34 1
  29   17   18 1
  30   17   25 2
  31   18   19 1
  32   19   20 1
  33   19   23 1
  34   19   24 1
  35   20   21 1
  36   20   35 1
  37   21   22 1
  38   22   36 1
  39   22   37 1
  40   22   38 1
  41   23   39 1
  42   23   40 1
  43   23   41 1
  44   24   42 1
  45   24   43 1
  46   24   44 1

#	End of record

