#	Name: ASD03430213
#	Creating user name:	WinNT
#	Creation time:	15. 06. 2019 20:40

#	Modifying user name:	WinNT
#	Modification time:	15. 06. 2019 20:40

#	Program:	/corina/corina34_cracker 3.40 0067  02.08.2006

@<TRIPOS>MOLECULE
ASD03430213
  61   67    0    0    0
SMALL
NO_CHARGES


@<TRIPOS>ATOM
   1 C1             0.0242     1.3549     0.0226 C.ar    
   2 C2             0.0284    -0.0225     0.0228 C.ar    
   3 C3             1.2232    -0.7111     0.0430 C.ar    
   4 C4             2.4324    -0.0211     0.0721 C.ar    
   5 C5             2.4197     1.3686     0.0611 C.ar    
   6 C6             1.2182     2.0664     0.0332 C.ar    
   7 O7             3.4887    -0.8816     0.1220 O.3     
   8 C8             1.5640    -2.1765     0.0282 C.3     
   9 C9             3.0609    -2.1862    -0.3129 C.3     
  10 C10            0.4035    -3.8820     1.0604 C.ar    
  11 C11            1.2865    -2.8428     1.3432 C.ar    
  12 C12            0.7574    -2.9397    -0.9826 C.2     
  13 N13            0.1151    -3.9128    -0.3058 N.am    
  14 O14            0.6958    -2.7232    -2.1743 O.2     
  15 C15            1.7143    -2.6188     2.6323 C.ar    
  16 C16            1.2684    -3.4290     3.6618 C.ar    
  17 C17            0.3913    -4.4634     3.3927 C.ar    
  18 C18           -0.0408    -4.6919     2.1026 C.ar    
  19 C19           -0.7806    -4.8892    -0.9308 C.3     
  20 C20           -1.1002     2.3718     0.0219 C.3     
  21 C21           -0.3593     3.6683     0.4265 C.3     
  22 O22            0.9899     3.4090     0.0029 O.3     
  23 C23           -2.2036    -4.4043    -0.8264 C.ar    
  24 C24           -3.2341    -5.1231    -1.4350 C.ar    
  25 C25           -2.9338    -6.3621    -2.1831 C.2     
  26 O26           -1.7800    -6.7077    -2.3484 O.2     
  27 C27           -2.4916    -3.2522    -0.1247 C.ar    
  28 C28           -3.7977    -2.8055    -0.0279 C.ar    
  29 C29           -4.8229    -3.5103    -0.6330 C.ar    
  30 C30           -4.5493    -4.6670    -1.3335 C.ar    
  31 N31           -3.9389    -7.1086    -2.6819 N.am    
  32 C32           -3.6593    -8.3237    -3.3178 C.ar    
  33 C33           -2.4199    -8.5313    -3.9078 C.ar    
  34 C34           -2.1466    -9.7317    -4.5343 C.ar    
  35 C35           -4.6204    -9.3282    -3.3551 C.ar    
  36 C36           -4.3396   -10.5275    -3.9842 C.ar    
  37 C37           -3.1056   -10.7271    -4.5752 C.ar    
  38 F38           -5.8260    -9.1330    -2.7776 F       
  39 H39           -0.9058    -0.5643     0.0075 H       
  40 H40            3.3530     1.9118     0.0750 H       
  41 H41            3.2127    -2.3056    -1.3857 H       
  42 H42            3.5792    -2.9683     0.2418 H       
  43 H43            2.3991    -1.8100     2.8405 H       
  44 H44            1.6049    -3.2540     4.6730 H       
  45 H45            0.0431    -5.0957     4.1961 H       
  46 H46           -0.7257    -5.5020     1.9001 H       
  47 H47           -0.5132    -5.0076    -1.9808 H       
  48 H48           -0.6852    -5.8480    -0.4213 H       
  49 H49           -1.5383     2.4674    -0.9716 H       
  50 H50           -1.8608     2.1119     0.7581 H       
  51 H51           -0.7710     4.5289    -0.1007 H       
  52 H52           -0.4034     3.8177     1.5054 H       
  53 H53           -1.6959    -2.6978     0.3506 H       
  54 H54           -4.0178    -1.9029     0.5227 H       
  55 H55           -5.8402    -3.1564    -0.5533 H       
  56 H56           -5.3506    -5.2163    -1.8054 H       
  57 H57           -4.8562    -6.8038    -2.6001 H       
  58 H58           -1.6700    -7.7546    -3.8773 H       
  59 H59           -1.1823    -9.8930    -4.9932 H       
  60 H60           -5.0849   -11.3086    -4.0140 H       
  61 H61           -2.8886   -11.6644    -5.0659 H       
@<TRIPOS>BOND
   1    1    2 ar
   2    1    6 ar
   3    1   20 1
   4    2    3 ar
   5    2   39 1
   6    3    4 ar
   7    3    8 1
   8    4    5 ar
   9    4    7 1
  10    5    6 ar
  11    5   40 1
  12    6   22 1
  13    7    9 1
  14    8    9 1
  15    8   11 1
  16    8   12 1
  17    9   41 1
  18    9   42 1
  19   10   11 ar
  20   10   13 1
  21   10   18 ar
  22   11   15 ar
  23   12   13 am
  24   12   14 2
  25   13   19 1
  26   15   16 ar
  27   15   43 1
  28   16   17 ar
  29   16   44 1
  30   17   18 ar
  31   17   45 1
  32   18   46 1
  33   19   23 1
  34   19   47 1
  35   19   48 1
  36   20   21 1
  37   20   49 1
  38   20   50 1
  39   21   22 1
  40   21   51 1
  41   21   52 1
  42   23   24 ar
  43   23   27 ar
  44   24   25 1
  45   24   30 ar
  46   25   26 2
  47   25   31 am
  48   27   28 ar
  49   27   53 1
  50   28   29 ar
  51   28   54 1
  52   29   30 ar
  53   29   55 1
  54   30   56 1
  55   31   32 1
  56   31   57 1
  57   32   33 ar
  58   32   35 ar
  59   33   34 ar
  60   33   58 1
  61   34   37 ar
  62   34   59 1
  63   35   36 ar
  64   35   38 1
  65   36   37 ar
  66   36   60 1
  67   37   61 1

#	End of record

