#	Name: ASD01918182
#	Creating user name:	WinNT
#	Creation time:	15. 06. 2019 20:10

#	Modifying user name:	WinNT
#	Modification time:	15. 06. 2019 20:10

#	Program:	/corina/corina34_cracker 3.40 0067  02.08.2006

@<TRIPOS>MOLECULE
ASD01918182
  41   43    0    0    0
SMALL
NO_CHARGES


@<TRIPOS>ATOM
   1 N1             0.0426     1.3151     0.1326 N.ar    
   2 C2             0.0698    -0.0011     0.1444 C.ar    
   3 C3             1.2712    -0.6875     0.1659 C.ar    
   4 C4             2.4629     0.0240     0.1753 C.ar    
   5 C5             2.4073     1.4065     0.1626 C.ar    
   6 C6             1.1599     2.0347     0.1409 C.ar    
   7 N7             1.0878     3.4002     0.1276 N.2     
   8 N8            -0.0617     3.9853     0.1072 N.2     
   9 C9            -0.1335     5.3468     0.0940 C.ar    
  10 C10           -1.4470     7.3621     0.0642 C.ar    
  11 C11           -1.3797     5.9831     0.0775 C.ar    
  12 C12            1.0389     6.1111     0.1026 C.ar    
  13 C13            0.9645     7.4860     0.0892 C.ar    
  14 C14           -0.2736     8.1183     0.0671 C.ar    
  15 O15           -2.6563     7.9837     0.0486 O.3     
  16 C16           -3.8154     7.1478     0.0470 C.3     
  17 N17           -0.3434     9.5125     0.0535 N.am    
  18 C18            0.6799    10.2337    -0.4457 C.2     
  19 C19            0.5708    11.7034    -0.5394 C.ar    
  20 O20            1.6927     9.6743    -0.8189 O.2     
  21 C21            1.5189    13.8276    -1.1464 C.ar    
  22 C22            1.6278    12.4537    -1.0619 C.ar    
  23 C23           -0.5914    12.3493    -0.1115 C.ar    
  24 C24           -0.6873    13.7213    -0.2014 C.ar    
  25 C25            0.3659    14.4609    -0.7154 C.ar    
  26 Cl26           3.0742    11.6604    -1.6027 Cl      
  27 Cl27           0.2366    16.1886    -0.8244 Cl      
  28 H28           -0.8586    -0.5529     0.1374 H       
  29 H29            1.2815    -1.7674     0.1758 H       
  30 H30            3.4126    -0.4900     0.1925 H       
  31 H31            3.3152     1.9914     0.1697 H       
  32 H32           -2.2868     5.3969     0.0750 H       
  33 H33            2.0019     5.6225     0.1201 H       
  34 H34            1.8700     8.0746     0.0962 H       
  35 H35           -3.8024     6.5103    -0.8370 H       
  36 H36           -3.8168     6.5268     0.9428 H       
  37 H37           -4.7111     7.7688     0.0340 H       
  38 H38           -1.1284     9.9622     0.4034 H       
  39 H39            2.3348    14.4092    -1.5496 H       
  40 H40           -1.4136    11.7746     0.2888 H       
  41 H41           -1.5856    14.2213     0.1293 H       
@<TRIPOS>BOND
   1    1    2 ar
   2    1    6 ar
   3    2    3 ar
   4    2   28 1
   5    3    4 ar
   6    3   29 1
   7    4    5 ar
   8    4   30 1
   9    5    6 ar
  10    5   31 1
  11    6    7 1
  12    7    8 2
  13    8    9 1
  14    9   12 ar
  15    9   11 ar
  16   10   11 ar
  17   10   14 ar
  18   10   15 1
  19   11   32 1
  20   12   13 ar
  21   12   33 1
  22   13   14 ar
  23   13   34 1
  24   14   17 1
  25   15   16 1
  26   16   35 1
  27   16   36 1
  28   16   37 1
  29   17   18 am
  30   17   38 1
  31   18   19 1
  32   18   20 2
  33   19   23 ar
  34   19   22 ar
  35   21   22 ar
  36   21   25 ar
  37   21   39 1
  38   22   26 1
  39   23   24 ar
  40   23   40 1
  41   24   25 ar
  42   24   41 1
  43   25   27 1

#	End of record

