#	Name: ASD05720095
#	Creating user name:	WinNT
#	Creation time:	15. 06. 2019 21:01

#	Modifying user name:	WinNT
#	Modification time:	15. 06. 2019 21:01

#	Program:	/corina/corina34_cracker 3.40 0067  02.08.2006

@<TRIPOS>MOLECULE
ASD05720095
  27   25    0    0    0
SMALL
NO_CHARGES


@<TRIPOS>ATOM
   1 C1            -0.0187     1.5258     0.0104 C.3     
   2 C2             0.0021    -0.0041     0.0020 C.3     
   3 C3            -2.2247    -0.5803     1.0023 C.ar    
   4 C4            -1.4075    -0.5249    -0.1112 C.ar    
   5 C5            -1.9012    -0.9542    -1.3334 C.ar    
   6 C6            -3.2042    -1.4253    -1.3902 C.ar    
   7 C7            -3.9619    -1.4509    -0.2350 C.ar    
   8 N8            -3.4591    -1.0348     0.9110 N.ar    
   9 C9            -5.3792    -1.9608    -0.2851 C.3     
  10 N10            0.6059    -0.4925     1.2489 N.3     
  11 O11            1.3220     2.0204     0.0003 O.3     
  12 H12           -0.5459     1.8868    -0.8726 H       
  13 H13           -0.5289     1.8773     0.9072 H       
  14 H14            0.5883    -0.3548    -0.8473 H       
  15 H15           -1.8462    -0.2520     1.9590 H       
  16 H16           -1.2857    -0.9222    -2.2202 H       
  17 H17           -3.6216    -1.7674    -2.3257 H       
  18 H18           -5.3858    -3.0347    -0.0985 H       
  19 H19           -5.9740    -1.4561     0.4762 H       
  20 H20           -5.8028    -1.7604    -1.2691 H       
  21 H21            0.0803    -0.1804     2.0517 H       
  22 H22            0.6901    -1.4979     1.2403 H       
  23 H23            1.3852     2.9853     0.0049 H       
  24 Cl24           6.3852     7.9853     7.0517 Cl      
  25 H25            6.3852     9.3553     7.0517 H       
  26 Cl26          11.3852    14.3553    12.0517 Cl      
  27 H27           11.3852    15.7253    12.0517 H       
@<TRIPOS>BOND
   1    1    2 1
   2    1   11 1
   3    1   12 1
   4    1   13 1
   5    2    4 1
   6    2   10 1
   7    2   14 1
   8    3    4 ar
   9    3    8 ar
  10    3   15 1
  11    4    5 ar
  12    5    6 ar
  13    5   16 1
  14    6    7 ar
  15    6   17 1
  16    7    8 ar
  17    7    9 1
  18    9   18 1
  19    9   19 1
  20    9   20 1
  21   10   21 1
  22   10   22 1
  23   11   23 1
  24   24   25 1
  25   26   27 1

#	End of record

