#	Name: ASD01150242
#	Creating user name:	WinNT
#	Creation time:	15. 06. 2019 19:03

#	Modifying user name:	WinNT
#	Modification time:	15. 06. 2019 19:03

#	Program:	/corina/corina34_cracker 3.40 0067  02.08.2006

@<TRIPOS>MOLECULE
ASD01150242
  66   70    0    0    0
SMALL
NO_CHARGES


@<TRIPOS>ATOM
   1 C1             0.2995     0.8546     0.1451 C.ar    
   2 C2             0.1813    -0.5310     0.3011 C.ar    
   3 C3            -1.0395    -1.1244     0.3790 C.ar    
   4 C4            -2.2069    -0.3439     0.3028 C.ar    
   5 C5            -2.0922     1.0588     0.1450 C.ar    
   6 C6            -0.8254     1.6496     0.0727 C.ar    
   7 N7            -3.4162    -0.9105     0.3771 N.ar    
   8 C8            -4.5172    -0.2015     0.3078 C.ar    
   9 C9            -4.4931     1.1795     0.1529 C.ar    
  10 C10           -3.2743     1.8394     0.0690 C.ar    
  11 N11            1.5661     1.4375     0.0680 N.3     
  12 C12           -3.2105     3.3094    -0.0964 C.ar    
  13 C13           -5.7823     1.9563     0.0774 C.3     
  14 C14           -6.4147     1.7621    -1.3022 C.3     
  15 O15           -6.6813     1.4863     1.0839 O.3     
  16 C16           -5.8471    -0.9045     0.3984 C.3     
  17 C17           -2.6620     4.1038     0.9108 C.ar    
  18 C18           -2.6044     5.4726     0.7518 C.ar    
  19 C19           -3.0907     6.0591    -0.4060 C.ar    
  20 C20           -3.6365     5.2742    -1.4094 C.ar    
  21 C21           -3.6934     3.9041    -1.2623 C.ar    
  22 F22           -3.0329     7.4004    -0.5567 F       
  23 C23            2.6206     0.4208     0.1716 C.3     
  24 C24            3.9850     1.0734    -0.0620 C.3     
  25 C25            4.2051     2.1721     0.9815 C.3     
  26 C26            3.0674     3.1923     0.8848 C.3     
  27 C27            1.7296     2.4783     1.0909 C.3     
  28 C28           -7.6345     2.3551     1.5147 C.ar    
  29 C29           -7.7767     3.5898     0.8991 C.ar    
  30 C30           -8.7449     4.4723     1.3368 C.ar    
  31 C31           -9.5753     4.1237     2.3916 C.ar    
  32 C32           -9.4337     2.8886     3.0067 C.ar    
  33 C33           -8.4683     2.0043     2.5661 C.ar    
  34 O34          -10.5279     4.9929     2.8231 O.3     
  35 C35          -11.3475     4.5681     3.9138 C.3     
  36 H36            1.0727    -1.1378     0.3601 H       
  37 H37           -1.1127    -2.1952     0.4990 H       
  38 H38           -0.7295     2.7186    -0.0476 H       
  39 H39           -5.5785     3.0150     0.2379 H       
  40 H40           -6.5304     0.6969    -1.5022 H       
  41 H41           -7.3919     2.2444    -1.3251 H       
  42 H42           -5.7722     2.2068    -2.0622 H       
  43 H43           -6.1236    -1.0252     1.4458 H       
  44 H44           -6.6066    -0.3123    -0.1120 H       
  45 H45           -5.7729    -1.8845    -0.0730 H       
  46 H46           -2.2834     3.6478     1.8136 H       
  47 H47           -2.1799     6.0884     1.5308 H       
  48 H48           -4.0145     5.7360    -2.3095 H       
  49 H49           -4.1187     3.2933    -2.0449 H       
  50 H50            2.5973    -0.0266     1.1652 H       
  51 H51            2.4546    -0.3523    -0.5786 H       
  52 H52            4.7686     0.3215     0.0304 H       
  53 H53            4.0138     1.5091    -1.0607 H       
  54 H54            4.2151     1.7311     1.9783 H       
  55 H55            5.1568     2.6688     0.7924 H       
  56 H56            3.1955     3.9542     1.6537 H       
  57 H57            3.0818     3.6613    -0.0990 H       
  58 H58            0.9165     3.1995     1.0085 H       
  59 H59            1.7105     2.0212     2.0803 H       
  60 H60           -7.1301     3.8613     0.0777 H       
  61 H61           -8.8552     5.4341     0.8578 H       
  62 H62          -10.0802     2.6171     3.8280 H       
  63 H63           -8.3580     1.0426     3.0450 H       
  64 H64          -11.8837     3.6613     3.6338 H       
  65 H65          -10.7206     4.3659     4.7822 H       
  66 H66          -12.0636     5.3529     4.1574 H       
@<TRIPOS>BOND
   1    1    2 ar
   2    1   11 1
   3    1    6 ar
   4    2    3 ar
   5    2   36 1
   6    3    4 ar
   7    3   37 1
   8    4    5 ar
   9    4    7 ar
  10    5    6 ar
  11    5   10 ar
  12    6   38 1
  13    7    8 ar
  14    8    9 ar
  15    8   16 1
  16    9   10 ar
  17    9   13 1
  18   10   12 1
  19   11   23 1
  20   11   27 1
  21   12   17 ar
  22   12   21 ar
  23   13   14 1
  24   13   15 1
  25   13   39 1
  26   14   40 1
  27   14   41 1
  28   14   42 1
  29   15   28 1
  30   16   43 1
  31   16   44 1
  32   16   45 1
  33   17   18 ar
  34   17   46 1
  35   18   19 ar
  36   18   47 1
  37   19   20 ar
  38   19   22 1
  39   20   21 ar
  40   20   48 1
  41   21   49 1
  42   23   24 1
  43   23   50 1
  44   23   51 1
  45   24   25 1
  46   24   52 1
  47   24   53 1
  48   25   26 1
  49   25   54 1
  50   25   55 1
  51   26   27 1
  52   26   56 1
  53   26   57 1
  54   27   58 1
  55   27   59 1
  56   28   29 ar
  57   28   33 ar
  58   29   30 ar
  59   29   60 1
  60   30   31 ar
  61   30   61 1
  62   31   32 ar
  63   31   34 1
  64   32   33 ar
  65   32   62 1
  66   33   63 1
  67   34   35 1
  68   35   64 1
  69   35   65 1
  70   35   66 1

#	End of record

