#	Name: ASD01915153
#	Creating user name:	WinNT
#	Creation time:	15. 06. 2019 20:04

#	Modifying user name:	WinNT
#	Modification time:	15. 06. 2019 20:04

#	Program:	/corina/corina34_cracker 3.40 0067  02.08.2006

@<TRIPOS>MOLECULE
ASD01915153
  35   38    0    0    0
SMALL
NO_CHARGES


@<TRIPOS>ATOM
   1 C1            -0.0146     0.9968    -0.0987 C.ar    
   2 C2             0.2015    -0.3574     0.1681 C.ar    
   3 N3            -0.8351    -1.1834     0.3272 N.ar    
   4 C4            -2.0779    -0.7694     0.2420 C.ar    
   5 C5            -2.3723     0.5599    -0.0202 C.ar    
   6 C6            -1.3438     1.4605    -0.1889 C.ar    
   7 C7             1.2373     1.7335    -0.2391 C.2     
   8 C8             2.3313     0.9933    -0.0899 C.2     
   9 S9             1.9300    -0.6808     0.2376 S.3     
  10 C10            1.2850     3.1891    -0.5254 C.2     
  11 C11            1.6136     4.1834     0.3386 C.2     
  12 S12            3.9754     1.6159    -0.2075 S.o2    
  13 O13            3.9248     2.9674     0.2287 O.2     
  14 O14            4.8182     0.6384     0.3871 O.2     
  15 C15            4.3952     1.6605    -1.9181 C.ar    
  16 C16            4.1246     2.7925    -2.6653 C.ar    
  17 C17            4.9982     0.5683    -2.5073 C.ar    
  18 C18            5.3311     0.6041    -3.8627 C.ar    
  19 C19            5.0511     1.7469    -4.6144 C.ar    
  20 C20            4.4519     2.8360    -4.0114 C.ar    
  21 F21            4.1799     3.9432    -4.7362 F       
  22 O22            1.5347     5.3550    -0.3120 O.3     
  23 C23            1.1620     5.1657    -1.5867 C.2     
  24 C24            0.9931     3.8499    -1.8022 C.2     
  25 C25            5.9574    -0.5264    -4.4793 C.1     
  26 N26            6.4543    -1.4233    -4.9685 N.1     
  27 H27           -2.8837    -1.4755     0.3778 H       
  28 H28           -3.3993     0.8872    -0.0877 H       
  29 H29           -1.5511     2.5005    -0.3938 H       
  30 H30            1.8912     4.0538     1.3742 H       
  31 H31            3.6559     3.6459    -2.1980 H       
  32 H32            5.2126    -0.3129    -1.9208 H       
  33 H33            5.3061     1.7810    -5.6633 H       
  34 H34            1.0246     5.9445    -2.3223 H       
  35 H35            0.6958     3.3758    -2.7259 H       
@<TRIPOS>BOND
   1    1    2 ar
   2    1    7 1
   3    1    6 ar
   4    2    3 ar
   5    2    9 1
   6    3    4 ar
   7    4    5 ar
   8    4   27 1
   9    5    6 ar
  10    5   28 1
  11    6   29 1
  12    7    8 2
  13    7   10 1
  14    8    9 1
  15    8   12 1
  16   10   11 2
  17   10   24 1
  18   11   22 1
  19   11   30 1
  20   12   13 2
  21   12   14 2
  22   12   15 1
  23   15   16 ar
  24   15   17 ar
  25   16   20 ar
  26   16   31 1
  27   17   18 ar
  28   17   32 1
  29   18   19 ar
  30   18   25 1
  31   19   20 ar
  32   19   33 1
  33   20   21 1
  34   22   23 1
  35   23   24 2
  36   23   34 1
  37   24   35 1
  38   25   26 3

#	End of record

