#	Name: ASD01811736
#	Creating user name:	WinNT
#	Creation time:	15. 06. 2019 19:27

#	Modifying user name:	WinNT
#	Modification time:	15. 06. 2019 19:27

#	Program:	/corina/corina34_cracker 3.40 0067  02.08.2006

@<TRIPOS>MOLECULE
ASD01811736
  60   65    0    0    0
SMALL
NO_CHARGES


@<TRIPOS>ATOM
   1 C1             0.6484     1.4578     0.1307 C.ar    
   2 C2             0.3966     0.0986     0.0485 C.ar    
   3 C3             1.4182    -0.7805    -0.2654 C.ar    
   4 C4             2.6939    -0.3109    -0.4991 C.ar    
   5 C5             2.9555     1.0583    -0.4186 C.ar    
   6 C6             1.9172     1.9367    -0.1006 C.ar    
   7 C7            -0.9937    -0.4247     0.3021 C.3     
   8 C8            -1.6278    -0.1165     1.6600 C.3     
   9 C9            -2.1264     0.5990     0.4028 C.3     
  10 C10            1.1356    -2.2583    -0.3518 C.3     
  11 C11            1.2239    -2.8679     1.0236 C.ar    
  12 C12            0.0766    -3.0370     1.7773 C.ar    
  13 C13            0.1517    -3.5952     3.0374 C.ar    
  14 C14            1.3860    -3.9885     3.5498 C.ar    
  15 C15            2.5385    -3.8159     2.7863 C.ar    
  16 C16            2.4513    -3.2615     1.5253 C.ar    
  17 C17            1.4731    -4.5890     4.9046 C.2     
  18 N18            0.4552    -4.8174     5.7537 N.2     
  19 N19            0.9230    -5.3484     6.8276 N.2     
  20 N20            2.1992    -5.4873     6.7422 N.pl3   
  21 C21            2.6012    -5.0257     5.5366 C.2     
  22 C22            3.0693    -6.0558     7.7747 C.3     
  23 C23            4.1871     1.8477    -0.6103 C.2     
  24 N24            3.9366     3.1551    -0.4231 N.am    
  25 C25            2.5165     3.3207    -0.0930 C.3     
  26 O26            5.2731     1.3825    -0.8959 O.2     
  27 C27            4.9193     4.2362    -0.5309 C.3     
  28 C28            5.5170     4.2657    -1.9486 C.3     
  29 C29            7.0333     4.0282    -1.7926 C.3     
  30 C30            7.1643     3.2861    -0.4393 C.3     
  31 C31            6.0933     3.9818     0.4370 C.3     
  32 O32            5.2806     5.5388    -2.5531 O.3     
  33 H33           -0.1518     2.1419     0.3719 H       
  34 H34            3.4884    -1.0004    -0.7435 H       
  35 H35           -1.2241    -1.3874    -0.1541 H       
  36 H36           -2.2756    -0.8764     2.0969 H       
  37 H37           -1.0394     0.4647     2.3699 H       
  38 H38           -1.8659     1.6509     0.2857 H       
  39 H39           -3.1022     0.3098     0.0127 H       
  40 H40            0.1348    -2.4139    -0.7546 H       
  41 H41            1.8681    -2.7306    -1.0063 H       
  42 H42           -0.8798    -2.7314     1.3793 H       
  43 H43           -0.7447    -3.7265     3.6253 H       
  44 H44            3.4979    -4.1191     3.1788 H       
  45 H45            3.3440    -3.1275     0.9325 H       
  46 H46            3.6109    -5.0009     5.1542 H       
  47 H47            3.1565    -7.1318     7.6243 H       
  48 H48            4.0567    -5.5986     7.7098 H       
  49 H49            2.6421    -5.8598     8.7582 H       
  50 H50            2.0282     3.9444    -0.8419 H       
  51 H51            2.4114     3.7691     0.8949 H       
  52 H52            4.4489     5.1929    -0.3041 H       
  53 H53            5.0759     3.4757    -2.5563 H       
  54 H54            7.4078     3.4070    -2.6061 H       
  55 H55            7.5669     4.9781    -1.7599 H       
  56 H56            6.9386     2.2262    -0.5565 H       
  57 H57            8.1593     3.4259    -0.0169 H       
  58 H58            6.4750     4.9242     0.8297 H       
  59 H59            5.7817     3.3267     1.2506 H       
  60 H60            5.6341     5.6203    -3.4495 H       
@<TRIPOS>BOND
   1    1    2 ar
   2    1    6 ar
   3    1   33 1
   4    2    3 ar
   5    2    7 1
   6    3    4 ar
   7    3   10 1
   8    4    5 ar
   9    4   34 1
  10    5    6 ar
  11    5   23 1
  12    6   25 1
  13    7    8 1
  14    7    9 1
  15    7   35 1
  16    8    9 1
  17    8   36 1
  18    8   37 1
  19    9   38 1
  20    9   39 1
  21   10   11 1
  22   10   40 1
  23   10   41 1
  24   11   12 ar
  25   11   16 ar
  26   12   13 ar
  27   12   42 1
  28   13   14 ar
  29   13   43 1
  30   14   15 ar
  31   14   17 1
  32   15   16 ar
  33   15   44 1
  34   16   45 1
  35   17   18 1
  36   17   21 2
  37   18   19 2
  38   19   20 1
  39   20   21 1
  40   20   22 1
  41   21   46 1
  42   22   47 1
  43   22   48 1
  44   22   49 1
  45   23   24 am
  46   23   26 2
  47   24   25 1
  48   24   27 1
  49   25   50 1
  50   25   51 1
  51   27   28 1
  52   27   31 1
  53   27   52 1
  54   28   29 1
  55   28   32 1
  56   28   53 1
  57   29   30 1
  58   29   54 1
  59   29   55 1
  60   30   31 1
  61   30   56 1
  62   30   57 1
  63   31   58 1
  64   31   59 1
  65   32   60 1

#	End of record

