#	Name: ASD01208428
#	Creating user name:	WinNT
#	Creation time:	15. 06. 2019 19:09

#	Modifying user name:	WinNT
#	Modification time:	15. 06. 2019 19:09

#	Program:	/corina/corina34_cracker 3.40 0067  02.08.2006

@<TRIPOS>MOLECULE
ASD01208428
  21   22    0    0    0
SMALL
NO_CHARGES


@<TRIPOS>ATOM
   1 N1            -0.0165     1.3661     0.0096 N.am    
   2 C2             0.0021    -0.0041     0.0020 C.2     
   3 C3             1.2882    -0.4142    -0.0125 C.2     
   4 C4             2.1066     0.7283    -0.0141 C.2     
   5 C5             1.2885     1.8188    -0.0005 C.2     
   6 C6            -1.1199     2.1401     0.0192 C.2     
   7 O7            -2.2280     1.6244     0.0224 O.co2   
   8 O8            -1.0123     3.3575     0.0249 O.co2   
   9 S9             3.3891     3.7840    -0.0104 S.3     
  10 C10            1.7184     3.2253     0.0025 C.2     
  11 N11            0.9236     4.2604     0.0148 N.2     
  12 C12            1.4895     5.4457     0.0151 C.2     
  13 C13            2.8261     5.4540     0.0026 C.2     
  14 C14            3.7014     6.6808    -0.0002 C.3     
  15 Br15          -1.5171    -1.1301     0.0114 Br      
  16 H16            1.6281    -1.4393    -0.0212 H       
  17 H17            3.1865     0.7402    -0.0244 H       
  18 H18            0.9106     6.3574     0.0244 H       
  19 H19            4.7489     6.3798    -0.0121 H       
  20 H20            3.4852     7.2793    -0.8852 H       
  21 H21            3.5030     7.2707     0.8946 H       
@<TRIPOS>BOND
   1    1    2 1
   2    1    5 1
   3    1    6 am
   4    2    3 2
   5    2   15 1
   6    3    4 1
   7    3   16 1
   8    4    5 2
   9    4   17 1
  10    5   10 1
  11    6    7 ar
  12    6    8 ar
  13    9   10 1
  14    9   13 1
  15   10   11 2
  16   11   12 1
  17   12   13 2
  18   12   18 1
  19   13   14 1
  20   14   19 1
  21   14   20 1
  22   14   21 1

#	End of record

