#	Name: ASD09800002
#	Creating user name:	WinNT
#	Creation time:	15. 06. 2019 21:24

#	Modifying user name:	WinNT
#	Modification time:	15. 06. 2019 21:24

#	Program:	/corina/corina34_cracker 3.40 0067  02.08.2006

@<TRIPOS>MOLECULE
ASD09800002
  53   56    0    0    0
SMALL
NO_CHARGES


@<TRIPOS>ATOM
   1 C1             2.1933     1.4329     1.3669 C.ar    
   2 C2             2.3877     0.4920     2.3587 C.ar    
   3 C3             1.3118    -0.2159     2.8629 C.ar    
   4 C4             0.0387     0.0160     2.3760 C.ar    
   5 C5            -0.1623     0.9556     1.3836 C.ar    
   6 C6             0.9156     1.6682     0.8757 C.ar    
   7 N7             0.7153     2.6211    -0.1294 N.am    
   8 C8            -0.3924     3.3888    -0.1189 C.2     
   9 N9            -0.5435     4.3662    -1.0345 N.am    
  10 O10           -1.2553     3.1997     0.7165 O.2     
  11 C11           -1.7374     5.0923    -1.0917 C.ar    
  12 C12           -1.7115     6.4462    -1.4043 C.ar    
  13 C13           -2.8870     7.1643    -1.4613 C.ar    
  14 C14           -4.1027     6.5308    -1.2053 C.ar    
  15 C15           -4.1259     5.1720    -0.8923 C.ar    
  16 C16           -2.9481     4.4574    -0.8414 C.ar    
  17 C17           -5.3680     7.3005    -1.2654 C.2     
  18 C18           -6.4666     7.2381    -0.3017 C.ar    
  19 C19           -7.4504     8.1336    -0.7605 C.ar    
  20 N20           -6.9750     8.6887    -1.9111 N.pl3   
  21 N21           -5.7069     8.1678    -2.1899 N.2     
  22 C22           -7.6802     9.6807    -2.7264 C.3     
  23 C23           -6.8439    10.9592    -2.8106 C.3     
  24 C24           -7.8999     9.1214    -4.1334 C.3     
  25 C25           -6.7092     6.5237     0.8832 C.ar    
  26 N26           -7.8593     6.7267     1.5182 N.ar    
  27 C27           -8.7556     7.5779     1.0512 C.ar    
  28 N28           -8.5718     8.2684    -0.0525 N.ar    
  29 N29           -5.7761     5.6320     1.3761 N.pl3   
  30 C30           -1.1308    -0.7575     2.9283 C.3     
  31 F31           -0.6809    -1.6425     3.9139 F       
  32 F32           -2.0559     0.1312     3.4865 F       
  33 F33           -1.7413    -1.4793     1.8970 F       
  34 H34            3.0332     1.9885     0.9767 H       
  35 H35            3.3810     0.3083     2.7408 H       
  36 H36            1.4665    -0.9515     3.6383 H       
  37 H37           -1.1570     1.1358     1.0032 H       
  38 H38            1.3736     2.7290    -0.8336 H       
  39 H39            0.1758     4.5660    -1.6539 H       
  40 H40           -0.7698     6.9363    -1.6024 H       
  41 H41           -2.8663     8.2165    -1.7036 H       
  42 H42           -5.0661     4.6791    -0.6937 H       
  43 H43           -2.9655     3.4051    -0.5990 H       
  44 H44           -8.6442     9.9066    -2.2706 H       
  45 H45           -7.3686    11.6973    -3.4172 H       
  46 H46           -6.6873    11.3576    -1.8082 H       
  47 H47           -5.8799    10.7333    -3.2665 H       
  48 H48           -8.4957     8.2106    -4.0734 H       
  49 H49           -8.4246     9.8595    -4.7400 H       
  50 H50           -6.9359     8.8955    -4.5893 H       
  51 H51           -9.6767     7.7123     1.5988 H       
  52 H52           -4.8671     5.6447     1.0376 H       
  53 H53           -6.0299     4.9933     2.0606 H       
@<TRIPOS>BOND
   1    1    2 ar
   2    1    6 ar
   3    1   34 1
   4    2    3 ar
   5    2   35 1
   6    3    4 ar
   7    3   36 1
   8    4    5 ar
   9    4   30 1
  10    5    6 ar
  11    5   37 1
  12    6    7 1
  13    7    8 am
  14    7   38 1
  15    8    9 am
  16    8   10 2
  17    9   11 1
  18    9   39 1
  19   11   12 ar
  20   11   16 ar
  21   12   13 ar
  22   12   40 1
  23   13   14 ar
  24   13   41 1
  25   14   15 ar
  26   14   17 1
  27   15   16 ar
  28   15   42 1
  29   16   43 1
  30   17   18 1
  31   17   21 2
  32   18   19 ar
  33   18   25 ar
  34   19   20 1
  35   19   28 ar
  36   20   21 1
  37   20   22 1
  38   22   23 1
  39   22   24 1
  40   22   44 1
  41   23   45 1
  42   23   46 1
  43   23   47 1
  44   24   48 1
  45   24   49 1
  46   24   50 1
  47   25   26 ar
  48   25   29 1
  49   26   27 ar
  50   27   28 ar
  51   27   51 1
  52   29   52 1
  53   29   53 1
  54   30   31 1
  55   30   32 1
  56   30   33 1

#	End of record

