#	Name: ASD00170174
#	Creating user name:	WinNT
#	Creation time:	15. 06. 2019 18:31

#	Modifying user name:	WinNT
#	Modification time:	15. 06. 2019 18:31

#	Program:	/corina/corina34_cracker 3.40 0067  02.08.2006

@<TRIPOS>MOLECULE
ASD00170174
  30   31    0    0    0
SMALL
NO_CHARGES


@<TRIPOS>ATOM
   1 C1            -0.0161     1.3326     0.0094 C.2     
   2 C2             0.0021    -0.0041     0.0020 C.2     
   3 C3            -1.3336    -0.5765     0.0108 C.2     
   4 C4            -2.3263     0.3666     0.0249 C.2     
   5 S5            -1.6653     1.9354     0.0208 S.3     
   6 C6             1.2252     2.2044     0.0022 C.3     
   7 C7             2.4303     1.3486     0.4017 C.3     
   8 C8             2.4403     0.0733    -0.4464 C.3     
   9 C9             1.2807    -0.8267    -0.0133 C.3     
  10 N10           -3.6783     0.0838     0.0355 N.pl3   
  11 C11           -1.5917    -2.0160     0.0050 C.2     
  12 O12           -1.7213    -2.6734    -1.1659 O.3     
  13 O13           -1.6897    -2.6206     1.0562 O.2     
  14 C14           -1.9725    -4.0784    -1.0967 C.3     
  15 C15           -2.0884    -4.6461    -2.5128 C.3     
  16 H16            1.3807     2.6106    -0.9972 H       
  17 H17            1.1033     3.0196     0.7154 H       
  18 H18            3.3490     1.9091     0.2283 H       
  19 H19            2.3563     1.0845     1.4566 H       
  20 H20            2.3258     0.3345    -1.4984 H       
  21 H21            3.3837    -0.4532    -0.3014 H       
  22 H22            1.4755    -1.2187     0.9850 H       
  23 H23            1.1755    -1.6516    -0.7179 H       
  24 H24           -3.9811    -0.8377     0.0331 H       
  25 H25           -4.3249     0.8068     0.0453 H       
  26 H26           -1.1511    -4.5691    -0.5746 H       
  27 H27           -2.9030    -4.2550    -0.5572 H       
  28 H28           -2.9098    -4.1554    -3.0348 H       
  29 H29           -1.1579    -4.4695    -3.0523 H       
  30 H30           -2.2800    -5.7178    -2.4600 H       
@<TRIPOS>BOND
   1    1    2 2
   2    1    6 1
   3    1    5 1
   4    2    3 1
   5    2    9 1
   6    3    4 2
   7    3   11 1
   8    4    5 1
   9    4   10 1
  10    6    7 1
  11    6   16 1
  12    6   17 1
  13    7    8 1
  14    7   18 1
  15    7   19 1
  16    8    9 1
  17    8   20 1
  18    8   21 1
  19    9   22 1
  20    9   23 1
  21   10   24 1
  22   10   25 1
  23   11   12 1
  24   11   13 2
  25   12   14 1
  26   14   15 1
  27   14   26 1
  28   14   27 1
  29   15   28 1
  30   15   29 1
  31   15   30 1

#	End of record

