#	Name: ASD01880159
#	Creating user name:	WinNT
#	Creation time:	15. 06. 2019 19:40

#	Modifying user name:	WinNT
#	Modification time:	15. 06. 2019 19:40

#	Program:	/corina/corina34_cracker 3.40 0067  02.08.2006

@<TRIPOS>MOLECULE
ASD01880159
  68   71    0    0    0
SMALL
NO_CHARGES


@<TRIPOS>ATOM
   1 C1            -0.0167     1.3789     0.0096 C.ar    
   2 C2             0.0021    -0.0041     0.0020 C.ar    
   3 C3            -1.1868    -0.7281     0.0090 C.ar    
   4 C4            -2.3901    -0.0804     0.0239 C.ar    
   5 C5            -2.4265     1.3134     0.0322 C.ar    
   6 C6            -1.2314     2.0521     0.0306 C.ar    
   7 O7             1.1915    -0.6618    -0.0128 O.3     
   8 C8             1.1431    -2.0899    -0.0200 C.3     
   9 C9             2.5675    -2.6484    -0.0366 C.3     
  10 C10            2.5156    -4.1775    -0.0443 C.3     
  11 C11            3.9399    -4.7361    -0.0608 C.3     
  12 O12            3.8915    -6.1642    -0.0681 O.3     
  13 C13            5.0801    -6.8214    -0.0829 C.ar    
  14 C14            5.1038    -8.2101    -0.0906 C.ar    
  15 C15            6.3081    -8.8804    -0.1061 C.ar    
  16 C16            7.5045    -8.1620    -0.1141 C.ar    
  17 C17            7.4768    -6.7668    -0.1063 C.ar    
  18 C18            6.2687    -6.1032    -0.0961 C.ar    
  19 C19            8.7990    -8.8778    -0.1302 C.2     
  20 N20            8.9718   -10.1831    -0.1389 N.2     
  21 N21           10.2233   -10.4707    -0.1531 N.2     
  22 N22           10.9319    -9.3941    -0.1545 N.2     
  23 N23           10.0324    -8.3136    -0.1448 N.pl3   
  24 C24            1.2765     2.1526     0.0014 C.3     
  25 C25            1.7004     2.4222    -1.4438 C.3     
  26 C26            3.0133     3.2077    -1.4521 C.3     
  27 C27           -3.5039     2.3110     0.0484 C.2     
  28 C28           -2.9040     3.5087     0.0498 C.2     
  29 O29           -1.5675     3.3577     0.0403 O.3     
  30 C30           -4.9865     2.0415     0.0605 C.3     
  31 C31           -5.4525     1.8176     1.5005 C.3     
  32 C32           -5.1543     3.0662     2.3329 C.3     
  33 C33           -6.9578     1.5440     1.5127 C.3     
  34 C34           -4.7114     0.6188     2.0958 C.3     
  35 H35           -1.1582    -1.8077     0.0022 H       
  36 H36           -3.3100    -0.6463     0.0289 H       
  37 H37            0.6258    -2.4405     0.8730 H       
  38 H38            0.6088    -2.4309    -0.9068 H       
  39 H39            3.0848    -2.2979    -0.9297 H       
  40 H40            3.1017    -2.3075     0.8502 H       
  41 H41            1.9983    -4.5281     0.8488 H       
  42 H42            1.9813    -4.5185    -0.9311 H       
  43 H43            4.4573    -4.3855    -0.9539 H       
  44 H44            4.4742    -4.3951     0.8259 H       
  45 H45            4.1776    -8.7654    -0.0840 H       
  46 H46            6.3258    -9.9602    -0.1117 H       
  47 H47            8.4008    -6.2076    -0.1125 H       
  48 H48            6.2465    -5.0234    -0.0905 H       
  49 H49           10.2476    -7.3678    -0.1437 H       
  50 H50            1.1363     3.1001     0.5217 H       
  51 H51            2.0501     1.5727     0.5048 H       
  52 H52            1.8406     1.4747    -1.9640 H       
  53 H53            0.9268     3.0021    -1.9471 H       
  54 H54            2.8731     4.1552    -0.9318 H       
  55 H55            3.7869     2.6278    -0.9487 H       
  56 H56            3.3153     3.3998    -2.4816 H       
  57 H57           -3.4189     4.4580     0.0600 H       
  58 H58           -5.5145     2.8955    -0.3637 H       
  59 H59           -5.1990     1.1519    -0.5326 H       
  60 H60           -5.6823     3.9203     1.9088 H       
  61 H61           -5.4863     2.9067     3.3588 H       
  62 H62           -4.0819     3.2612     2.3242 H       
  63 H63           -7.1702     0.6544     0.9197 H       
  64 H64           -7.2898     1.3845     2.5386 H       
  65 H65           -7.4858     2.3980     1.0886 H       
  66 H66           -3.6390     0.8137     2.0871 H       
  67 H67           -5.0433     0.4593     3.1217 H       
  68 H68           -4.9238    -0.2708     1.5028 H       
@<TRIPOS>BOND
   1    1    2 ar
   2    1   24 1
   3    1    6 ar
   4    2    3 ar
   5    2    7 1
   6    3    4 ar
   7    3   35 1
   8    4    5 ar
   9    4   36 1
  10    5    6 ar
  11    5   27 1
  12    6   29 1
  13    7    8 1
  14    8    9 1
  15    8   37 1
  16    8   38 1
  17    9   10 1
  18    9   39 1
  19    9   40 1
  20   10   11 1
  21   10   41 1
  22   10   42 1
  23   11   12 1
  24   11   43 1
  25   11   44 1
  26   12   13 1
  27   13   14 ar
  28   13   18 ar
  29   14   15 ar
  30   14   45 1
  31   15   16 ar
  32   15   46 1
  33   16   17 ar
  34   16   19 1
  35   17   18 ar
  36   17   47 1
  37   18   48 1
  38   19   20 2
  39   19   23 1
  40   20   21 1
  41   21   22 2
  42   22   23 1
  43   23   49 1
  44   24   25 1
  45   24   50 1
  46   24   51 1
  47   25   26 1
  48   25   52 1
  49   25   53 1
  50   26   54 1
  51   26   55 1
  52   26   56 1
  53   27   28 2
  54   27   30 1
  55   28   29 1
  56   28   57 1
  57   30   31 1
  58   30   58 1
  59   30   59 1
  60   31   32 1
  61   31   33 1
  62   31   34 1
  63   32   60 1
  64   32   61 1
  65   32   62 1
  66   33   63 1
  67   33   64 1
  68   33   65 1
  69   34   66 1
  70   34   67 1
  71   34   68 1

#	End of record

