#	Name: ASD01410696
#	Creating user name:	WinNT
#	Creation time:	15. 06. 2019 19:18

#	Modifying user name:	WinNT
#	Modification time:	15. 06. 2019 19:18

#	Program:	/corina/corina34_cracker 3.40 0067  02.08.2006

@<TRIPOS>MOLECULE
ASD01410696
  83   89    0    0    0
SMALL
NO_CHARGES


@<TRIPOS>ATOM
   1 N1            -0.4485     1.8142     0.0262 N.am    
   2 C2            -1.6165     4.2154    -2.0534 C.3     
   3 N3            -2.4840     3.3751    -4.9858 N.am    
   4 S4            -0.5411     0.1619     0.0821 S.o2    
   5 O5            -1.8513    -0.1578     0.5299 O.2     
   6 N6            -0.4405    -0.3464    -1.5078 N.am    
   7 O7             0.6393    -0.2906     0.7309 O.2     
   8 C8            -0.6300    -1.6947    -1.7306 C.2     
   9 O9            -0.5990    -2.5218    -0.8398 O.2     
  10 C10           -0.8751    -2.0479    -3.1473 C.ar    
  11 C11           -0.9844    -3.3731    -3.5575 C.ar    
  12 C12           -1.3325    -3.6998    -4.8438 C.ar    
  13 C13           -1.5870    -2.6396    -5.7281 C.ar    
  14 C14           -1.3408    -1.2878    -5.3598 C.ar    
  15 C15           -0.9927    -0.9794    -4.0552 C.ar    
  16 C16           -2.1298    -2.6030    -7.0191 C.2     
  17 C17           -2.1491    -1.3092    -7.4391 C.2     
  18 N18           -1.5420    -0.5239    -6.4771 N.pl3   
  19 C19           -2.6100    -3.7937    -7.8082 C.3     
  20 C20           -1.4064    -4.6128    -8.2786 C.3     
  21 C21           -3.5051    -4.6642    -6.9239 C.3     
  22 C22           -3.9926    -5.8731    -7.7250 C.3     
  23 C23           -2.7890    -6.6922    -8.1954 C.3     
  24 C24           -1.8939    -5.8217    -9.0797 C.3     
  25 C25           -2.7286    -0.8346    -8.7108 C.ar    
  26 C26           -3.2719     0.4158    -8.9273 C.ar    
  27 C27           -3.3987     1.4905    -7.8896 C.3     
  28 C28           -2.3732     1.7500    -6.8211 C.3     
  29 C29           -1.1316     0.8682    -6.6913 C.3     
  30 C30           -2.1956     3.1624    -6.3056 C.2     
  31 O31           -1.8168     4.0606    -7.0273 O.2     
  32 C32           -2.7167    -1.7752    -9.7616 C.ar    
  33 C33           -3.2282    -1.4612   -10.9955 C.ar    
  34 C34           -3.7608    -0.1968   -11.2143 C.ar    
  35 C35           -3.7767     0.7288   -10.1869 C.ar    
  36 O36           -4.2646     0.1289   -12.4331 O.3     
  37 C37           -4.2149    -0.8779   -13.4459 C.3     
  38 C38           -2.6835     4.7685    -2.9936 C.3     
  39 C39           -2.1910     4.7174    -4.4429 C.3     
  40 C40           -1.9987     2.8088    -1.5903 C.3     
  41 C41           -1.6497     2.6343    -0.1106 C.3     
  42 C42            0.8604     2.4653     0.1217 C.3     
  43 C43           -3.7090     1.0769    -6.4534 C.3     
  44 H44           -0.6609     4.1717    -2.5759 H       
  45 H45           -1.5240     4.8692    -1.1861 H       
  46 H46           -2.8641     2.6760    -4.4312 H       
  47 H47           -0.2594     0.2721    -2.2328 H       
  48 H48           -0.7902    -4.1629    -2.8469 H       
  49 H49           -1.4072    -4.7290    -5.1625 H       
  50 H50           -0.8187     0.0410    -3.7468 H       
  51 H51           -3.1771    -3.4513    -8.6738 H       
  52 H52           -0.7687    -3.9926    -8.9086 H       
  53 H53           -0.8393    -4.9552    -7.4131 H       
  54 H54           -2.9380    -5.0066    -6.0583 H       
  55 H55           -4.3626    -4.0807    -6.5888 H       
  56 H56           -4.6303    -6.4933    -7.0950 H       
  57 H57           -4.5597    -5.5307    -8.5906 H       
  58 H58           -2.2219    -7.0346    -7.3299 H       
  59 H59           -3.1363    -7.5534    -8.7662 H       
  60 H60           -2.4610    -5.4793    -9.9453 H       
  61 H61           -1.0364    -6.4052    -9.4149 H       
  62 H62           -3.9573     2.3661    -8.2369 H       
  63 H63           -0.5331     1.2052    -5.8449 H       
  64 H64           -0.5399     0.9366    -7.6042 H       
  65 H65           -2.2987    -2.7566    -9.5928 H       
  66 H66           -3.2165    -2.1915   -11.7910 H       
  67 H67           -4.1878     1.7116   -10.3646 H       
  68 H68           -4.6482    -0.4884   -14.3671 H       
  69 H69           -3.1780    -1.1629   -13.6242 H       
  70 H70           -4.7804    -1.7505   -13.1189 H       
  71 H71           -3.5903     4.1703    -2.9045 H       
  72 H72           -2.9042     5.8013    -2.7236 H       
  73 H73           -1.1166     4.8992    -4.4724 H       
  74 H74           -2.7083     5.4735    -5.0335 H       
  75 H75           -3.0675     2.6562    -1.7406 H       
  76 H76           -1.4440     2.0729    -2.1723 H       
  77 H77           -2.4798     2.1482     0.4020 H       
  78 H78           -1.4729     3.6122     0.3372 H       
  79 H79            1.6369     1.7070     0.2229 H       
  80 H80            1.0408     3.0521    -0.7790 H       
  81 H81            0.8773     3.1211     0.9921 H       
  82 H82           -4.4395     1.6699    -5.9030 H       
  83 H83           -3.6912     0.0126    -6.2186 H       
@<TRIPOS>BOND
   1    1    4 am
   2    1   42 1
   3    1   41 1
   4    2   38 1
   5    2   40 1
   6    2   44 1
   7    2   45 1
   8    3   30 am
   9    3   39 1
  10    3   46 1
  11    4    5 2
  12    4    6 am
  13    4    7 2
  14    6    8 am
  15    6   47 1
  16    8    9 2
  17    8   10 1
  18   10   11 ar
  19   10   15 ar
  20   11   12 ar
  21   11   48 1
  22   12   13 ar
  23   12   49 1
  24   13   14 ar
  25   13   16 1
  26   14   15 ar
  27   14   18 1
  28   15   50 1
  29   16   17 2
  30   16   19 1
  31   17   18 1
  32   17   25 1
  33   18   29 1
  34   19   20 1
  35   19   21 1
  36   19   51 1
  37   20   24 1
  38   20   52 1
  39   20   53 1
  40   21   22 1
  41   21   54 1
  42   21   55 1
  43   22   23 1
  44   22   56 1
  45   22   57 1
  46   23   24 1
  47   23   58 1
  48   23   59 1
  49   24   60 1
  50   24   61 1
  51   25   26 ar
  52   25   32 ar
  53   26   27 1
  54   26   35 ar
  55   27   28 1
  56   27   43 1
  57   27   62 1
  58   28   29 1
  59   28   30 1
  60   28   43 1
  61   29   63 1
  62   29   64 1
  63   30   31 2
  64   32   33 ar
  65   32   65 1
  66   33   34 ar
  67   33   66 1
  68   34   35 ar
  69   34   36 1
  70   35   67 1
  71   36   37 1
  72   37   68 1
  73   37   69 1
  74   37   70 1
  75   38   39 1
  76   38   71 1
  77   38   72 1
  78   39   73 1
  79   39   74 1
  80   40   41 1
  81   40   75 1
  82   40   76 1
  83   41   77 1
  84   41   78 1
  85   42   79 1
  86   42   80 1
  87   42   81 1
  88   43   82 1
  89   43   83 1

#	End of record

