#	Name: ASD03090262
#	Creating user name:	WinNT
#	Creation time:	15. 06. 2019 20:28

#	Modifying user name:	WinNT
#	Modification time:	15. 06. 2019 20:28

#	Program:	/corina/corina34_cracker 3.40 0067  02.08.2006

@<TRIPOS>MOLECULE
ASD03090262
  42   44    0    0    0
SMALL
NO_CHARGES


@<TRIPOS>ATOM
   1 N1            -0.0180     1.2611     0.6531 N.ar    
   2 C2             0.1306     0.3384    -0.2778 C.ar    
   3 C3             1.3311    -0.3270    -0.4308 C.ar    
   4 C4             2.3966    -0.0084     0.4201 C.ar    
   5 C5             2.1928     0.9764     1.3923 C.ar    
   6 C6             0.9598     1.5908     1.4746 C.ar    
   7 C7             3.7016    -0.6948     0.2947 C.2     
   8 N8             5.7592    -3.5334     0.0443 N.pl3   
   9 C9             4.9358    -4.6610    -0.0394 C.ar    
  10 C10            3.7031    -4.5763    -0.6733 C.ar    
  11 C11            2.8915    -5.6911    -0.7548 C.ar    
  12 C12            3.3060    -6.8921    -0.2046 C.ar    
  13 C13            4.5349    -6.9788     0.4281 C.ar    
  14 C14            5.3522    -5.8685     0.5064 C.ar    
  15 N15            3.8900    -1.9981     0.2409 N.2     
  16 C16            5.1928    -2.2600     0.1278 C.2     
  17 N17            5.8573    -1.1272     0.1075 N.2     
  18 N18            4.9102    -0.0954     0.2092 N.pl3   
  19 C19            5.1792     1.3446     0.2273 C.3     
  20 F20            2.5102    -7.9810    -0.2846 F       
  21 C21            5.0594     1.8956    -1.1702 C.2     
  22 N22            5.2660     3.2079    -1.3972 N.am    
  23 O23            4.7771     1.1580    -2.0907 O.2     
  24 C24            5.1495     3.7436    -2.7557 C.3     
  25 Cl25           1.5162    -1.5401    -1.6587 Cl      
  26 C26            4.9833    -8.2875     1.0260 C.3     
  27 F27            6.2468    -8.1272     1.6047 F       
  28 F28            4.0693    -8.6901     2.0056 F       
  29 F29            5.0499    -9.2601     0.0226 F       
  30 H30           -0.6975     0.0999    -0.9287 H       
  31 H31            2.9884     1.2516     2.0688 H       
  32 H32            0.7933     2.3523     2.2221 H       
  33 H33            6.7238    -3.6362     0.0443 H       
  34 H34            3.3791    -3.6395    -1.1020 H       
  35 H35            1.9328    -5.6258    -1.2477 H       
  36 H36            6.3106    -5.9367     0.9996 H       
  37 H37            4.4579     1.8408     0.8766 H       
  38 H38            6.1873     1.5212     0.6023 H       
  39 H39            5.4917     3.7978    -0.6610 H       
  40 H40            5.3497     4.8149    -2.7423 H       
  41 H41            5.8708     3.2473    -3.4050 H       
  42 H42            4.1414     3.5670    -3.1308 H       
@<TRIPOS>BOND
   1    1    2 ar
   2    1    6 ar
   3    2    3 ar
   4    2   30 1
   5    3    4 ar
   6    3   25 1
   7    4    5 ar
   8    4    7 1
   9    5    6 ar
  10    5   31 1
  11    6   32 1
  12    7   15 2
  13    7   18 1
  14    8    9 1
  15    8   16 1
  16    8   33 1
  17    9   10 ar
  18    9   14 ar
  19   10   11 ar
  20   10   34 1
  21   11   12 ar
  22   11   35 1
  23   12   13 ar
  24   12   20 1
  25   13   14 ar
  26   13   26 1
  27   14   36 1
  28   15   16 1
  29   16   17 2
  30   17   18 1
  31   18   19 1
  32   19   21 1
  33   19   37 1
  34   19   38 1
  35   21   22 am
  36   21   23 2
  37   22   24 1
  38   22   39 1
  39   24   40 1
  40   24   41 1
  41   24   42 1
  42   26   27 1
  43   26   28 1
  44   26   29 1

#	End of record

