#	Name: ASD01813295
#	Creating user name:	WinNT
#	Creation time:	15. 06. 2019 19:30

#	Modifying user name:	WinNT
#	Modification time:	15. 06. 2019 19:30

#	Program:	/corina/corina34_cracker 3.40 0067  02.08.2006

@<TRIPOS>MOLECULE
ASD01813295
  51   54    0    0    0
SMALL
NO_CHARGES


@<TRIPOS>ATOM
   1 C1            -0.0184     1.5028     0.0103 C.3     
   2 C2             0.0021    -0.0041     0.0020 C.2     
   3 N3             0.0081    -0.7654    -1.0600 N.2     
   4 N4             0.0279    -2.1034    -0.6481 N.pl3   
   5 C5             0.0406    -3.2734    -1.5296 C.3     
   6 C6             0.0338    -2.1292     0.6999 C.2     
   7 C7             0.0242    -0.8370     1.1376 C.2     
   8 C8             0.0320    -0.3901     2.5535 C.ar    
   9 C9             0.9428     0.5752     2.9764 C.ar    
  10 C10            0.9466     0.9885     4.2936 C.ar    
  11 C11            0.0487     0.4460     5.1941 C.ar    
  12 C12            0.0578     0.9012     6.6307 C.3     
  13 N13           -1.0867     1.7837     6.8706 N.am    
  14 C14           -1.0928     3.2420     6.7019 C.3     
  15 C15           -2.4812     3.7017     7.0644 C.ar    
  16 N16           -3.0780     4.8743     7.1068 N.ar    
  17 C17           -4.3433     4.9752     7.4750 C.ar    
  18 N18           -5.0621     3.9244     7.8135 N.ar    
  19 C19           -4.5394     2.7025     7.7990 C.ar    
  20 O20           -5.2830     1.6276     8.1481 O.3     
  21 C21           -6.6388     1.8723     8.5273 C.3     
  22 C22           -7.3152     0.5474     8.8854 C.3     
  23 C23           -6.5701    -0.1071    10.0504 C.3     
  24 F24           -8.6427     0.7869     9.2566 F       
  25 F25           -7.2876    -0.3050     7.7764 F       
  26 C26           -3.1966     2.5527     7.4132 C.ar    
  27 C27           -2.3077     1.3912     7.2764 C.2     
  28 O28           -2.6288     0.2402     7.5008 O.2     
  29 C29           -0.8599    -0.5147     4.7799 C.ar    
  30 F30           -1.7351    -1.0415     5.6640 F       
  31 C31           -0.8752    -0.9306     3.4617 C.ar    
  32 H32            1.0042     1.8801     0.0026 H       
  33 H33           -0.5455     1.8639    -0.8728 H       
  34 H34           -0.5286     1.8543     0.9071 H       
  35 H35            1.0713    -3.5492    -1.7525 H       
  36 H36           -0.4596    -4.1062    -1.0353 H       
  37 H37           -0.4804    -3.0353    -2.4570 H       
  38 H38            0.0483    -3.0128     1.3208 H       
  39 H39            1.6454     0.9997     2.2746 H       
  40 H40            1.6528     1.7370     4.6215 H       
  41 H41           -0.0084     0.0336     7.2872 H       
  42 H42            0.9823     1.4415     6.8348 H       
  43 H43           -0.3609     3.6993     7.3677 H       
  44 H44           -0.8710     3.5003     5.6664 H       
  45 H45           -4.8033     5.9520     7.4996 H       
  46 H46           -6.6603     2.5364     9.3913 H       
  47 H47           -7.1697     2.3385     7.6973 H       
  48 H48           -6.5916     0.5571    10.9144 H       
  49 H49           -7.0519    -1.0509    10.3055 H       
  50 H50           -5.5358    -0.2937     9.7612 H       
  51 H51           -1.5863    -1.6762     3.1377 H       
@<TRIPOS>BOND
   1    1    2 1
   2    1   32 1
   3    1   33 1
   4    1   34 1
   5    2    7 1
   6    2    3 2
   7    3    4 1
   8    4    5 1
   9    4    6 1
  10    5   35 1
  11    5   36 1
  12    5   37 1
  13    6    7 2
  14    6   38 1
  15    7    8 1
  16    8   31 ar
  17    8    9 ar
  18    9   10 ar
  19    9   39 1
  20   10   11 ar
  21   10   40 1
  22   11   12 1
  23   11   29 ar
  24   12   13 1
  25   12   41 1
  26   12   42 1
  27   13   27 am
  28   13   14 1
  29   14   15 1
  30   14   43 1
  31   14   44 1
  32   15   26 ar
  33   15   16 ar
  34   16   17 ar
  35   17   18 ar
  36   17   45 1
  37   18   19 ar
  38   19   20 1
  39   19   26 ar
  40   20   21 1
  41   21   22 1
  42   21   46 1
  43   21   47 1
  44   22   23 1
  45   22   24 1
  46   22   25 1
  47   23   48 1
  48   23   49 1
  49   23   50 1
  50   26   27 1
  51   27   28 2
  52   29   30 1
  53   29   31 ar
  54   31   51 1

#	End of record

