#	Name: ASD01918473
#	Creating user name:	WinNT
#	Creation time:	15. 06. 2019 20:11

#	Modifying user name:	WinNT
#	Modification time:	15. 06. 2019 20:11

#	Program:	/corina/corina34_cracker 3.40 0067  02.08.2006

@<TRIPOS>MOLECULE
ASD01918473
  43   46    0    0    0
SMALL
NO_CHARGES


@<TRIPOS>ATOM
   1 C1            -2.5124    -0.7796     1.1832 C.3     
   2 C2            -1.1759    -1.0825     0.5562 C.ar    
   3 N3            -1.1280    -1.6861    -0.6158 N.ar    
   4 C4             0.0231    -1.9716    -1.2036 C.ar    
   5 C5             1.2296    -1.6409    -0.5977 C.ar    
   6 C6             1.2142    -1.0069     0.6323 C.ar    
   7 C7            -0.0147    -0.7193     1.2142 C.ar    
   8 F8            -0.0744    -0.0962     2.4114 F       
   9 N9             0.0254    -2.6108    -2.4425 N.am    
  10 C10            0.0142    -1.8038    -3.6575 C.3     
  11 C11            0.9296    -2.3659    -4.7449 C.3     
  12 N12            0.7027    -3.8068    -4.8698 N.pl3   
  13 N13            0.8352    -4.6485    -5.9666 N.2     
  14 C14            0.5409    -5.8766    -5.5924 C.2     
  15 O15            0.5653    -6.9759    -6.3928 O.3     
  16 C16            0.9427    -6.7771    -7.7566 C.3     
  17 C17            0.9128    -8.0968    -8.4836 C.ar    
  18 C18            2.0439    -8.8906    -8.5219 C.ar    
  19 C19            2.0164   -10.1012    -9.1888 C.ar    
  20 C20            0.8577   -10.5182    -9.8168 C.ar    
  21 C21           -0.2737    -9.7248    -9.7777 C.ar    
  22 C22           -0.2474    -8.5162    -9.1072 C.ar    
  23 C23            0.1992    -5.8638    -4.2330 C.2     
  24 C24            0.2970    -4.5738    -3.8007 C.2     
  25 C25            0.0436    -3.9646    -2.4857 C.2     
  26 O26           -0.1431    -4.6407    -1.4920 O.2     
  27 H27           -2.8508     0.2047     0.8597 H       
  28 H28           -3.2376    -1.5326     0.8746 H       
  29 H29           -2.4156    -0.7919     2.2688 H       
  30 H30            2.1667    -1.8759    -1.0804 H       
  31 H31            2.1359    -0.7383     1.1269 H       
  32 H32           -1.0047    -1.7608    -4.0424 H       
  33 H33            0.3387    -0.7926    -3.4118 H       
  34 H34            0.7084    -1.8789    -5.6946 H       
  35 H35            1.9698    -2.1834    -4.4751 H       
  36 H36            0.2452    -6.0858    -8.2296 H       
  37 H37            1.9498    -6.3622    -7.7981 H       
  38 H38            2.9491    -8.5648    -8.0312 H       
  39 H39            2.9003   -10.7210    -9.2193 H       
  40 H40            0.8364   -11.4637   -10.3384 H       
  41 H41           -1.1788   -10.0505   -10.2686 H       
  42 H42           -1.1324    -7.8981    -9.0734 H       
  43 H43           -0.0888    -6.7178    -3.6378 H       
@<TRIPOS>BOND
   1    1    2 1
   2    1   27 1
   3    1   28 1
   4    1   29 1
   5    2    7 ar
   6    2    3 ar
   7    3    4 ar
   8    4    5 ar
   9    4    9 1
  10    5    6 ar
  11    5   30 1
  12    6    7 ar
  13    6   31 1
  14    7    8 1
  15    9   25 am
  16    9   10 1
  17   10   11 1
  18   10   32 1
  19   10   33 1
  20   11   12 1
  21   11   34 1
  22   11   35 1
  23   12   24 1
  24   12   13 1
  25   13   14 2
  26   14   15 1
  27   14   23 1
  28   15   16 1
  29   16   17 1
  30   16   36 1
  31   16   37 1
  32   17   22 ar
  33   17   18 ar
  34   18   19 ar
  35   18   38 1
  36   19   20 ar
  37   19   39 1
  38   20   21 ar
  39   20   40 1
  40   21   22 ar
  41   21   41 1
  42   22   42 1
  43   23   24 2
  44   23   43 1
  45   24   25 1
  46   25   26 2

#	End of record

