#	Name: ASD01884022
#	Creating user name:	WinNT
#	Creation time:	15. 06. 2019 19:47

#	Modifying user name:	WinNT
#	Modification time:	15. 06. 2019 19:47

#	Program:	/corina/corina34_cracker 3.40 0067  02.08.2006

@<TRIPOS>MOLECULE
ASD01884022
  59   63    0    0    0
SMALL
NO_CHARGES


@<TRIPOS>ATOM
   1 C1            -0.0168     1.3863     0.0097 C.ar    
   2 C2             0.0021    -0.0041     0.0020 C.ar    
   3 C3             1.2221    -0.6792    -0.0133 C.ar    
   4 C4             2.4177     0.0462    -0.0208 C.ar    
   5 C5             2.3890     1.4278    -0.0131 C.ar    
   6 C6             1.1821     2.0988     0.0020 C.ar    
   7 C7            -1.3116     2.1114     0.0197 C.ar    
   8 C8            -1.3327     3.5048     0.0274 C.ar    
   9 C9            -2.5395     4.1740     0.0368 C.ar    
  10 C10           -3.7269     3.4641     0.0386 C.ar    
  11 C11           -3.7118     2.0813     0.0310 C.ar    
  12 C12           -2.5103     1.4017     0.0158 C.ar    
  13 C13            1.2516    -2.1555    -0.0210 C.2     
  14 O14            2.3154    -2.7418    -0.0343 O.2     
  15 O15            0.0986    -2.8523    -0.0133 O.3     
  16 C16           -2.5640     5.6807     0.0456 C.3     
  17 O17           -2.5778     6.1648    -1.2989 O.3     
  18 C18           -2.6714    11.6541    -2.2990 C.2     
  19 N19           -2.6774    11.6796    -3.6428 N.am    
  20 C20           -2.6569    10.2996    -4.1412 C.3     
  21 C21           -2.6374     9.4117    -2.9220 C.ar    
  22 C22           -2.6150     8.0493    -2.7514 C.ar    
  23 C23           -2.6005     7.5110    -1.4688 C.ar    
  24 C24           -2.6096     8.3508    -0.3609 C.ar    
  25 C25           -2.6326     9.7174    -0.5262 C.ar    
  26 C26           -2.6468    10.2636    -1.8130 C.ar    
  27 O27           -2.6800    12.6388    -1.5858 O.2     
  28 C28           -2.7009    12.8863    -4.4731 C.3     
  29 C29           -1.2884    13.3234    -4.7641 C.ar    
  30 C30           -0.6362    12.8428    -5.8861 C.ar    
  31 C31            0.6564    13.2388    -6.1590 C.ar    
  32 C32            1.3074    14.1275    -5.2995 C.ar    
  33 C33            0.6426    14.6086    -4.1686 C.ar    
  34 C34           -0.6518    14.2079    -3.9112 C.ar    
  35 C35            2.6897    14.5553    -5.5843 C.2     
  36 O36            3.2524    15.3272    -4.8359 O.2     
  37 F37            3.3297    14.0878    -6.6785 F       
  38 Cl38           3.9392    -0.7895    -0.0392 Cl      
  39 H39           -0.9245    -0.5589     0.0082 H       
  40 H40            3.3141     1.9850    -0.0186 H       
  41 H41            1.1666     3.1787     0.0080 H       
  42 H42           -0.4062     4.0599     0.0264 H       
  43 H43           -4.6692     3.9918     0.0463 H       
  44 H44           -4.6417     1.5320     0.0328 H       
  45 H45           -2.4997     0.3218     0.0053 H       
  46 H46            0.1684    -3.8168    -0.0188 H       
  47 H47           -3.4573     6.0266     0.5655 H       
  48 H48           -1.6776     6.0555     0.5575 H       
  49 H49           -3.5499    10.1022    -4.7343 H       
  50 H50           -1.7629    10.1313    -4.7417 H       
  51 H51           -2.6087     7.3967    -3.6118 H       
  52 H52           -2.5990     7.9294     0.6334 H       
  53 H53           -2.6400    10.3665     0.3369 H       
  54 H54           -3.2155    12.6728    -5.4100 H       
  55 H55           -3.2255    13.6816    -3.9435 H       
  56 H56           -1.1406    12.1557    -6.5493 H       
  57 H57            1.1643    12.8626    -7.0348 H       
  58 H58            1.1398    15.2955    -3.4997 H       
  59 H59           -1.1685    14.5824    -3.0399 H       
@<TRIPOS>BOND
   1    1    2 ar
   2    1    6 ar
   3    1    7 1
   4    2    3 ar
   5    2   39 1
   6    3    4 ar
   7    3   13 1
   8    4    5 ar
   9    4   38 1
  10    5    6 ar
  11    5   40 1
  12    6   41 1
  13    7    8 ar
  14    7   12 ar
  15    8    9 ar
  16    8   42 1
  17    9   10 ar
  18    9   16 1
  19   10   11 ar
  20   10   43 1
  21   11   12 ar
  22   11   44 1
  23   12   45 1
  24   13   14 2
  25   13   15 1
  26   15   46 1
  27   16   17 1
  28   16   47 1
  29   16   48 1
  30   17   23 1
  31   18   19 am
  32   18   26 1
  33   18   27 2
  34   19   20 1
  35   19   28 1
  36   20   21 1
  37   20   49 1
  38   20   50 1
  39   21   22 ar
  40   21   26 ar
  41   22   23 ar
  42   22   51 1
  43   23   24 ar
  44   24   25 ar
  45   24   52 1
  46   25   26 ar
  47   25   53 1
  48   28   29 1
  49   28   54 1
  50   28   55 1
  51   29   30 ar
  52   29   34 ar
  53   30   31 ar
  54   30   56 1
  55   31   32 ar
  56   31   57 1
  57   32   33 ar
  58   32   35 1
  59   33   34 ar
  60   33   58 1
  61   34   59 1
  62   35   36 2
  63   35   37 1

#	End of record

