#	Name: ASD00431015
#	Creating user name:	WinNT
#	Creation time:	15. 06. 2019 18:35

#	Modifying user name:	WinNT
#	Modification time:	15. 06. 2019 18:35

#	Program:	/corina/corina34_cracker 3.40 0067  02.08.2006

@<TRIPOS>MOLECULE
ASD00431015
  30   29    0    0    0
SMALL
NO_CHARGES


@<TRIPOS>ATOM
   1 C1            -0.5680     2.1792    -0.9486 C.2     
   2 C2            -0.4015     0.6933    -0.7602 C.3     
   3 C3            -0.9567     0.2872     0.6065 C.3     
   4 C4            -0.7902    -1.1987     0.7949 C.2     
   5 C5             0.2561    -1.6651     1.4302 C.2     
   6 C6             0.3774    -3.1430     1.6991 C.3     
   7 N7             1.6613    -3.6317     1.1787 N.3     
   8 C8             0.4830     2.9367    -1.1424 C.2     
   9 C9            -1.8275    -2.1479     0.2526 C.3     
  10 C10            1.8659     2.3455    -1.0469 C.3     
  11 C11            0.3093     4.3994    -1.4609 C.3     
  12 H12           -1.5542     2.6189    -0.9284 H       
  13 H13           -0.9435     0.1646    -1.5443 H       
  14 H14            0.6565     0.4366    -0.8134 H       
  15 H15           -0.4147     0.8159     1.3905 H       
  16 H16           -2.0148     0.5439     0.6597 H       
  17 H17            1.0319    -0.9906     1.7613 H       
  18 H18            0.3289    -3.3220     2.7732 H       
  19 H19           -0.4391    -3.6703     1.2056 H       
  20 H20            2.4321    -3.1137     1.5732 H       
  21 H21            1.7666    -4.6210     1.3468 H       
  22 H22           -1.5161    -2.5038    -0.7295 H       
  23 H23           -1.9335    -2.9956     0.9295 H       
  24 H24           -2.7830    -1.6308     0.1655 H       
  25 H25            2.1366     1.8979    -2.0032 H       
  26 H26            2.5802     3.1303    -0.7979 H       
  27 H27            1.8812     1.5806    -0.2704 H       
  28 H28            0.2927     4.9735    -0.5345 H       
  29 H29            1.1385     4.7369    -2.0827 H       
  30 H30           -0.6291     4.5458    -1.9959 H       
@<TRIPOS>BOND
   1    1    2 1
   2    1    8 2
   3    1   12 1
   4    2    3 1
   5    2   13 1
   6    2   14 1
   7    3    4 1
   8    3   15 1
   9    3   16 1
  10    4    5 2
  11    4    9 1
  12    5    6 1
  13    5   17 1
  14    6    7 1
  15    6   18 1
  16    6   19 1
  17    7   20 1
  18    7   21 1
  19    8   10 1
  20    8   11 1
  21    9   22 1
  22    9   23 1
  23    9   24 1
  24   10   25 1
  25   10   26 1
  26   10   27 1
  27   11   28 1
  28   11   29 1
  29   11   30 1

#	End of record

