#	Name: ASD08170543
#	Creating user name:	WinNT
#	Creation time:	15. 06. 2019 21:17

#	Modifying user name:	WinNT
#	Modification time:	15. 06. 2019 21:17

#	Program:	/corina/corina34_cracker 3.40 0067  02.08.2006

@<TRIPOS>MOLECULE
ASD08170543
  77   80    0    0    0
SMALL
NO_CHARGES


@<TRIPOS>ATOM
   1 N1            -0.0159     1.3150     0.0224 N.ar    
   2 C2             0.0017    -0.0034     0.0124 C.ar    
   3 C3            -1.2931    -0.7743     0.0243 C.3     
   4 C4            -4.2984    -0.6746     2.4294 C.3     
   5 C5            -5.5932    -1.4455     2.4412 C.2     
   6 N6            -5.8033    -2.5767     3.0361 N.2     
   7 N7            -6.9625    -3.0651     2.9277 N.2     
   8 C8            -7.8359    -2.3975     2.2358 C.2     
   9 S9            -7.0970    -0.9657     1.6538 S.3     
  10 N10           -9.1540    -2.7791     2.0098 N.am    
  11 C11           -3.4530    -1.1158     1.2328 C.3     
  12 C12           -2.1384    -0.3331     1.2208 C.3     
  13 C13            1.2122    -0.6808    -0.0095 C.ar    
  14 C14            2.3785     0.0690    -0.0202 C.ar    
  15 C15            2.2616     1.4575    -0.0083 C.ar    
  16 N16            1.0600     2.0148     0.0126 N.ar    
  17 N17            3.4043     2.2567    -0.0179 N.am    
  18 C18           -9.6205    -3.9317     2.5297 C.2     
  19 O19           -8.8908    -4.6361     3.1947 O.2     
  20 C20          -11.0488    -4.3451     2.2847 C.3     
  21 C21          -11.3154    -5.6609     2.9693 C.ar    
  22 C22          -11.7760    -5.6812     4.2722 C.ar    
  23 C23            3.2889     3.5963    -0.1113 C.2     
  24 C24            4.5141     4.4673    -0.0047 C.3     
  25 O25            2.1992     4.1007    -0.2812 O.2     
  26 C26            4.1152     5.9141    -0.1410 C.ar    
  27 C27            4.0794     6.5066    -1.3894 C.ar    
  28 C28          -12.0205    -6.8884     4.9003 C.ar    
  29 C29          -11.8047    -8.0749     4.2251 C.ar    
  30 C30          -11.3447    -8.0546     2.9214 C.ar    
  31 C31          -11.1045    -6.8477     2.2921 C.ar    
  32 C32            3.7797     6.6473     0.9819 C.ar    
  33 C33            3.4139     7.9744     0.8570 C.ar    
  34 C34            3.3840     8.5686    -0.3908 C.ar    
  35 C35            3.7135     7.8338    -1.5144 C.ar    
  36 C36          -11.1090    -9.3483     2.1854 C.3     
  37 C37          -12.3702    -9.7550     1.4677 C.2     
  38 N38          -12.3951   -10.8883     0.7386 N.am    
  39 O39          -13.3627    -9.0625     1.5462 O.2     
  40 C40          -13.6212   -11.2836     0.0410 C.3     
  41 C41          -13.6838   -10.5822    -1.3173 C.3     
  42 C42          -13.6233   -12.7994    -0.1672 C.3     
  43 H43           -1.8401    -0.5802    -0.8983 H       
  44 H44           -1.0805    -1.8405     0.1031 H       
  45 H45           -4.5110     0.3916     2.3505 H       
  46 H46           -3.7514    -0.8687     3.3520 H       
  47 H47           -9.7376    -2.2157     1.4779 H       
  48 H48           -3.2404    -2.1820     1.3116 H       
  49 H49           -4.0000    -0.9216     0.3102 H       
  50 H50           -1.5915    -0.5273     2.1434 H       
  51 H51           -2.3511     0.7331     1.1420 H       
  52 H52            1.2451    -1.7603    -0.0176 H       
  53 H53            3.3472    -0.4082    -0.0369 H       
  54 H54            4.2821     1.8485     0.0427 H       
  55 H55          -11.7206    -3.5852     2.6839 H       
  56 H56          -11.2174    -4.4524     1.2132 H       
  57 H57          -11.9447    -4.7541     4.7998 H       
  58 H58            4.9880     4.3107     0.9643 H       
  59 H59            5.2148     4.2073    -0.7981 H       
  60 H60            4.3376     5.9327    -2.2671 H       
  61 H61          -12.3798    -6.9042     5.9187 H       
  62 H62          -11.9950    -9.0179     4.7159 H       
  63 H63          -10.7452    -6.8319     1.2737 H       
  64 H64            3.8031     6.1830     1.9568 H       
  65 H65            3.1511     8.5470     1.7342 H       
  66 H66            3.0978     9.6054    -0.4885 H       
  67 H67            3.6901     8.2980    -2.4892 H       
  68 H68          -10.3061    -9.2129     1.4607 H       
  69 H69          -10.8291   -10.1253     2.8968 H       
  70 H70          -11.6013   -11.4421     0.6759 H       
  71 H71          -14.4872   -10.9976     0.6379 H       
  72 H72          -13.6823    -9.5023    -1.1690 H       
  73 H73          -12.8178   -10.8682    -1.9142 H       
  74 H74          -14.5960   -10.8763    -1.8364 H       
  75 H75          -13.5787   -13.2991     0.8005 H       
  76 H76          -14.5355   -13.0935    -0.6863 H       
  77 H77          -12.7573   -13.0854    -0.7641 H       
@<TRIPOS>BOND
   1    1    2 ar
   2    1   16 ar
   3    2    3 1
   4    2   13 ar
   5    3   12 1
   6    3   43 1
   7    3   44 1
   8    4    5 1
   9    4   11 1
  10    4   45 1
  11    4   46 1
  12    5    6 2
  13    5    9 1
  14    6    7 1
  15    7    8 2
  16    8    9 1
  17    8   10 1
  18   10   18 am
  19   10   47 1
  20   11   12 1
  21   11   48 1
  22   11   49 1
  23   12   50 1
  24   12   51 1
  25   13   14 ar
  26   13   52 1
  27   14   15 ar
  28   14   53 1
  29   15   16 ar
  30   15   17 1
  31   17   23 am
  32   17   54 1
  33   18   19 2
  34   18   20 1
  35   20   21 1
  36   20   55 1
  37   20   56 1
  38   21   22 ar
  39   21   31 ar
  40   22   28 ar
  41   22   57 1
  42   23   24 1
  43   23   25 2
  44   24   26 1
  45   24   58 1
  46   24   59 1
  47   26   32 ar
  48   26   27 ar
  49   27   35 ar
  50   27   60 1
  51   28   29 ar
  52   28   61 1
  53   29   30 ar
  54   29   62 1
  55   30   31 ar
  56   30   36 1
  57   31   63 1
  58   32   33 ar
  59   32   64 1
  60   33   34 ar
  61   33   65 1
  62   34   35 ar
  63   34   66 1
  64   35   67 1
  65   36   37 1
  66   36   68 1
  67   36   69 1
  68   37   38 am
  69   37   39 2
  70   38   40 1
  71   38   70 1
  72   40   41 1
  73   40   42 1
  74   40   71 1
  75   41   72 1
  76   41   73 1
  77   41   74 1
  78   42   75 1
  79   42   76 1
  80   42   77 1

#	End of record

