#	Name: ASD01883646
#	Creating user name:	WinNT
#	Creation time:	15. 06. 2019 19:46

#	Modifying user name:	WinNT
#	Modification time:	15. 06. 2019 19:46

#	Program:	/corina/corina34_cracker 3.40 0067  02.08.2006

@<TRIPOS>MOLECULE
ASD01883646
  49   52    0    0    0
SMALL
NO_CHARGES


@<TRIPOS>ATOM
   1 C1            -0.0168     1.3851     0.0097 C.2     
   2 C2             0.0021    -0.0041     0.0020 C.2     
   3 C3            -1.2077    -0.7046     0.0098 C.2     
   4 C4            -2.3913    -0.0542     0.0245 C.2     
   5 N5            -2.4610     1.3064     0.0320 N.pl3   
   6 C6            -1.3167     2.0619     0.0319 C.2     
   7 C7            -3.5146     2.1815     0.0463 C.2     
   8 C8            -2.9968     3.4281     0.0477 C.2     
   9 N9            -1.6629     3.3358     0.0399 N.2     
  10 C10           -4.9776     1.8203     0.0573 C.3     
  11 C11           -5.5157     1.8280    -1.3749 C.3     
  12 F12           -4.8108     0.8950    -2.1429 F       
  13 F13           -6.8739     1.4927    -1.3646 F       
  14 F14           -5.3544     3.1034    -1.9268 F       
  15 C15            1.3126    -0.7478    -0.0149 C.3     
  16 N16            1.6926    -1.1019     1.3592 N.3     
  17 C17            2.8342    -2.0272     1.3682 C.3     
  18 C18            3.2484    -2.3081     2.8145 C.3     
  19 N19            2.1078    -2.8764     3.5465 N.3     
  20 C20            0.9662    -1.9510     3.5375 C.3     
  21 C21            0.5519    -1.6701     2.0911 C.3     
  22 C22            2.4698    -3.2138     4.8560 C.ar    
  23 C23            1.8201    -2.6208     5.9329 C.ar    
  24 C24            2.1798    -2.9566     7.2253 C.ar    
  25 C25            3.1859    -3.8818     7.4462 C.ar    
  26 C26            3.8339    -4.4726     6.3747 C.ar    
  27 C27            3.4740    -4.1450     5.0815 C.ar    
  28 F28            3.5363    -4.2084     8.7095 F       
  29 F29            0.8390    -1.7175     5.7169 F       
  30 C30            1.2024     2.1362     0.0021 C.1     
  31 N31            2.1695     2.7321    -0.0040 N.1     
  32 H32           -1.1956    -1.7845     0.0035 H       
  33 H33           -3.3065    -0.6276     0.0302 H       
  34 H34           -3.5650     4.3465     0.0576 H       
  35 H35           -5.1033     0.8266     0.4873 H       
  36 H36           -5.5268     2.5472     0.6557 H       
  37 H37            1.2073    -1.6561    -0.6083 H       
  38 H38            2.0840    -0.1148    -0.4535 H       
  39 H39            2.5491    -2.9611     0.8836 H       
  40 H40            3.6700    -1.5789     0.8310 H       
  41 H41            4.0764    -3.0169     2.8245 H       
  42 H42            3.5594    -1.3783     3.2908 H       
  43 H43            0.1304    -2.3994     4.0746 H       
  44 H44            1.2512    -1.0172     4.0220 H       
  45 H45           -0.2761    -0.9614     2.0811 H       
  46 H46            0.2410    -2.5999     1.6148 H       
  47 H47            1.6759    -2.4968     8.0626 H       
  48 H48            4.6188    -5.1934     6.5499 H       
  49 H49            3.9802    -4.6065     4.2466 H       
@<TRIPOS>BOND
   1    1    2 2
   2    1   30 1
   3    1    6 1
   4    2    3 1
   5    2   15 1
   6    3    4 2
   7    3   32 1
   8    4    5 1
   9    4   33 1
  10    5    6 1
  11    5    7 1
  12    6    9 2
  13    7    8 2
  14    7   10 1
  15    8    9 1
  16    8   34 1
  17   10   11 1
  18   10   35 1
  19   10   36 1
  20   11   12 1
  21   11   13 1
  22   11   14 1
  23   15   16 1
  24   15   37 1
  25   15   38 1
  26   16   17 1
  27   16   21 1
  28   17   18 1
  29   17   39 1
  30   17   40 1
  31   18   19 1
  32   18   41 1
  33   18   42 1
  34   19   20 1
  35   19   22 1
  36   20   21 1
  37   20   43 1
  38   20   44 1
  39   21   45 1
  40   21   46 1
  41   22   23 ar
  42   22   27 ar
  43   23   24 ar
  44   23   29 1
  45   24   25 ar
  46   24   47 1
  47   25   26 ar
  48   25   28 1
  49   26   27 ar
  50   26   48 1
  51   27   49 1
  52   30   31 3

#	End of record

