#	Name: ASD01028110
#	Creating user name:	WinNT
#	Creation time:	15. 06. 2019 18:56

#	Modifying user name:	WinNT
#	Modification time:	15. 06. 2019 18:56

#	Program:	/corina/corina34_cracker 3.40 0067  02.08.2006

@<TRIPOS>MOLECULE
ASD01028110
  77   81    0    0    0
SMALL
NO_CHARGES


@<TRIPOS>ATOM
   1 C1             2.4177     0.1039     0.1642 C.3     
   2 C2             1.8898    -1.1571     0.7986 C.2     
   3 N3            -2.5854    -4.6918     0.7495 N.pl3   
   4 C4            -3.9326    -5.0361     0.9172 C.ar    
   5 C5            -4.8558    -4.0691     1.2920 C.ar    
   6 C6            -4.4076    -2.6483     1.5185 C.3     
   7 C7            -4.3484    -6.3463     0.7027 C.ar    
   8 C8            -5.6872    -6.6827     0.8700 C.ar    
   9 C9            -6.6016    -5.7108     1.2497 C.ar    
  10 C10           -6.1851    -4.4082     1.4571 C.ar    
  11 O11            1.8312    -2.2932     0.0860 O.3     
  12 C12            1.4476    -3.4176     0.7475 C.ar    
  13 C13            0.1361    -3.7993     0.7267 C.ar    
  14 C14           -0.2599    -4.9569     1.4073 C.ar    
  15 C15           -1.6049    -5.3965     1.4172 C.ar    
  16 N16           -1.8982    -6.5046     2.0860 N.ar    
  17 O17           -3.6593    -7.4657     0.3315 O.3     
  18 C18           -4.5152    -8.5732     0.6696 C.3     
  19 O19           -5.8400    -8.0131     0.6037 O.3     
  20 C20            2.4036    -4.1756     1.4386 C.ar    
  21 C21            2.0397    -5.3184     2.1155 C.ar    
  22 C22            0.6996    -5.7248     2.1128 C.ar    
  23 N23            0.2938    -6.8303     2.7563 N.ar    
  24 C24           -0.9678    -7.1897     2.7308 C.ar    
  25 O25            3.7026    -3.7787     1.4401 O.3     
  26 C26            4.6289    -4.5928     2.1622 C.3     
  27 O27            1.5194    -1.1454     1.9486 O.2     
  28 Br28          -8.4226    -6.1666     1.4778 Br      
  29 N29           -4.4518    -1.9144     0.2513 N.am    
  30 C30           -5.5597    -1.2278    -0.0915 C.2     
  31 O31           -5.6003    -0.5533    -1.2560 O.3     
  32 O32           -6.5219    -1.2174     0.6504 O.2     
  33 C33           -6.8257     0.1638    -1.5601 C.3     
  34 C34           -6.6867     0.8531    -2.8930 C.ar    
  35 C35           -7.0560     0.1970    -4.0523 C.ar    
  36 C36           -6.1953     2.1437    -2.9558 C.ar    
  37 C37           -6.0678     2.7760    -4.1784 C.ar    
  38 C38           -6.4314     2.1177    -5.3383 C.ar    
  39 C39           -6.9285     0.8293    -5.2750 C.ar    
  40 C40           -3.2916    -1.9268    -0.6432 C.3     
  41 C41           -3.4908    -2.9933    -1.7220 C.3     
  42 C42           -2.2399    -3.0711    -2.5995 C.3     
  43 C43           -2.4391    -4.1376    -3.6782 C.3     
  44 C44           -1.1882    -4.2153    -4.5557 C.3     
  45 Cl45          -1.4229    -5.4721    -5.8270 Cl      
  46 H46            2.7009    -0.1000    -0.8684 H       
  47 H47            1.6444     0.8718     0.1840 H       
  48 H48            3.2895     0.4519     0.7181 H       
  49 H49           -2.3417    -3.9578     0.1640 H       
  50 H50           -5.0700    -2.1689     2.2393 H       
  51 H51           -3.3882    -2.6459     1.9044 H       
  52 H52           -6.9002    -3.6548     1.7526 H       
  53 H53           -0.5918    -3.2107     0.1880 H       
  54 H54           -4.4035    -9.3791    -0.0557 H       
  55 H55           -4.2999    -8.9302     1.6768 H       
  56 H56            2.7824    -5.8966     2.6453 H       
  57 H57           -1.2600    -8.0848     3.2598 H       
  58 H58            4.3345    -4.6355     3.2108 H       
  59 H59            4.6307    -5.5994     1.7440 H       
  60 H60            5.6280    -4.1645     2.0824 H       
  61 H61           -7.6578    -0.5392    -1.5997 H       
  62 H62           -7.0140     0.9065    -0.7849 H       
  63 H63           -7.4437    -0.8098    -4.0029 H       
  64 H64           -5.9113     2.6580    -2.0496 H       
  65 H65           -5.6846     3.7845    -4.2274 H       
  66 H66           -6.3321     2.6118    -6.2934 H       
  67 H67           -7.2125     0.3150    -6.1811 H       
  68 H68           -3.1852    -0.9494    -1.1138 H       
  69 H69           -2.3930    -2.1537    -0.0695 H       
  70 H70           -3.6638    -3.9602    -1.2494 H       
  71 H71           -4.3510    -2.7309    -2.3379 H       
  72 H72           -2.0669    -2.1042    -3.0720 H       
  73 H73           -1.3798    -3.3335    -1.9835 H       
  74 H74           -2.6121    -5.1045    -3.2057 H       
  75 H75           -3.2993    -3.8751    -4.2942 H       
  76 H76           -1.0152    -3.2484    -5.0283 H       
  77 H77           -0.3280    -4.4777    -3.9398 H       
@<TRIPOS>BOND
   1    1    2 1
   2    1   46 1
   3    1   47 1
   4    1   48 1
   5    2   11 1
   6    2   27 2
   7    3    4 1
   8    3   15 1
   9    3   49 1
  10    4    5 ar
  11    4    7 ar
  12    5    6 1
  13    5   10 ar
  14    6   29 1
  15    6   50 1
  16    6   51 1
  17    7    8 ar
  18    7   17 1
  19    8    9 ar
  20    8   19 1
  21    9   10 ar
  22    9   28 1
  23   10   52 1
  24   11   12 1
  25   12   13 ar
  26   12   20 ar
  27   13   14 ar
  28   13   53 1
  29   14   15 ar
  30   14   22 ar
  31   15   16 ar
  32   16   24 ar
  33   17   18 1
  34   18   19 1
  35   18   54 1
  36   18   55 1
  37   20   21 ar
  38   20   25 1
  39   21   22 ar
  40   21   56 1
  41   22   23 ar
  42   23   24 ar
  43   24   57 1
  44   25   26 1
  45   26   58 1
  46   26   59 1
  47   26   60 1
  48   29   30 am
  49   29   40 1
  50   30   31 1
  51   30   32 2
  52   31   33 1
  53   33   34 1
  54   33   61 1
  55   33   62 1
  56   34   35 ar
  57   34   36 ar
  58   35   39 ar
  59   35   63 1
  60   36   37 ar
  61   36   64 1
  62   37   38 ar
  63   37   65 1
  64   38   39 ar
  65   38   66 1
  66   39   67 1
  67   40   41 1
  68   40   68 1
  69   40   69 1
  70   41   42 1
  71   41   70 1
  72   41   71 1
  73   42   43 1
  74   42   72 1
  75   42   73 1
  76   43   44 1
  77   43   74 1
  78   43   75 1
  79   44   45 1
  80   44   76 1
  81   44   77 1

#	End of record

