#	Name: ASD01028554
#	Creating user name:	WinNT
#	Creation time:	15. 06. 2019 18:57

#	Modifying user name:	WinNT
#	Modification time:	15. 06. 2019 18:57

#	Program:	/corina/corina34_cracker 3.40 0067  02.08.2006

@<TRIPOS>MOLECULE
ASD01028554
  41   45    0    0    0
SMALL
NO_CHARGES


@<TRIPOS>ATOM
   1 N1            -0.0169     1.3921     0.0097 N.2     
   2 N2             0.0021    -0.0041     0.0020 N.pl3   
   3 C3             1.1087     2.0746     0.0026 C.2     
   4 C4             2.3555     1.4108    -0.0129 C.2     
   5 C5             2.4043     0.0531    -0.0206 C.2     
   6 C6             1.2004    -0.6774    -0.0130 C.2     
   7 N7             0.9138    -1.9689    -0.0176 N.2     
   8 N8            -0.3646    -2.1207    -0.0065 N.2     
   9 C9            -0.9590    -0.9535     0.0057 C.2     
  10 C10           -2.4466    -0.7132     0.0214 C.3     
  11 C11            1.0674     3.5527     0.0105 C.2     
  12 N12           -2.9153    -0.6434     1.4076 N.pl3   
  13 C13           -4.2593    -0.4274     1.6754 C.ar    
  14 C14           -5.1758    -0.2748     0.6485 C.ar    
  15 C15           -6.5152    -0.0601     0.9459 C.ar    
  16 N16           -6.9459     0.0041     2.1843 N.ar    
  17 C17           -6.1162    -0.1346     3.2234 C.ar    
  18 C18           -4.7369    -0.3620     3.0081 C.ar    
  19 C19           -6.5918    -0.0641     4.5470 C.ar    
  20 C20           -5.6928    -0.2142     5.5663 C.ar    
  21 C21           -4.3441    -0.4307     5.2789 C.ar    
  22 N22           -3.9090    -0.5007     4.0442 N.ar    
  23 C23           -0.0441     4.3659     0.0249 C.2     
  24 C24            0.2380     5.7096     0.0296 C.2     
  25 N25            1.4840     6.0814     0.0202 N.2     
  26 S26            2.4373     4.6775     0.0111 S.3     
  27 F27           -6.1093    -0.1526     6.8500 F       
  28 C28           -0.8708     6.7301     0.0446 C.3     
  29 H29            3.2712     1.9834    -0.0189 H       
  30 H30            3.3547    -0.4596    -0.0328 H       
  31 H31           -2.6682     0.2264    -0.4848 H       
  32 H32           -2.9522    -1.5308    -0.4924 H       
  33 H33           -2.2860    -0.7483     2.1383 H       
  34 H34           -4.8499    -0.3223    -0.3801 H       
  35 H35           -7.2211     0.0575     0.1370 H       
  36 H36           -7.6388     0.1045     4.7515 H       
  37 H37           -3.6435    -0.5474     6.0926 H       
  38 H38           -1.0525     3.9793     0.0321 H       
  39 H39           -1.1291     6.9707     1.0759 H       
  40 H40           -0.5400     7.6337    -0.4674 H       
  41 H41           -1.7453     6.3239    -0.4637 H       
@<TRIPOS>BOND
   1    1    2 1
   2    1    3 2
   3    2    6 1
   4    2    9 1
   5    3    4 1
   6    3   11 1
   7    4    5 2
   8    4   29 1
   9    5    6 1
  10    5   30 1
  11    6    7 2
  12    7    8 1
  13    8    9 2
  14    9   10 1
  15   10   12 1
  16   10   31 1
  17   10   32 1
  18   11   23 2
  19   11   26 1
  20   12   13 1
  21   12   33 1
  22   13   14 ar
  23   13   18 ar
  24   14   15 ar
  25   14   34 1
  26   15   16 ar
  27   15   35 1
  28   16   17 ar
  29   17   18 ar
  30   17   19 ar
  31   18   22 ar
  32   19   20 ar
  33   19   36 1
  34   20   21 ar
  35   20   27 1
  36   21   22 ar
  37   21   37 1
  38   23   24 1
  39   23   38 1
  40   24   25 2
  41   24   28 1
  42   25   26 1
  43   28   39 1
  44   28   40 1
  45   28   41 1

#	End of record

