#	Name: ASD01910186
#	Creating user name:	WinNT
#	Creation time:	15. 06. 2019 19:55

#	Modifying user name:	WinNT
#	Modification time:	15. 06. 2019 19:55

#	Program:	/corina/corina34_cracker 3.40 0067  02.08.2006

@<TRIPOS>MOLECULE
ASD01910186
  46   48    0    0    0
SMALL
NO_CHARGES


@<TRIPOS>ATOM
   1 C1            -0.2177     1.3702     0.0947 C.ar    
   2 C2             0.0386     0.0329     0.3276 C.ar    
   3 C3             1.3461    -0.4372     0.3190 C.ar    
   4 C4             2.3948     0.4379     0.0762 C.ar    
   5 C5             2.1340     1.7808    -0.1575 C.ar    
   6 C6             0.8245     2.2445    -0.1475 C.ar    
   7 N7             3.1883     2.6664    -0.4023 N.am    
   8 C8             4.2629     2.2569    -1.1052 C.2     
   9 C9             5.3300     3.2193    -1.4517 C.ar    
  10 N10            1.6048    -1.7918     0.5556 N.am    
  11 C11            0.7275    -2.7277     0.1421 C.2     
  12 C12            6.4440     2.7984    -2.1796 C.ar    
  13 C13            7.4367     3.7015    -2.5005 C.ar    
  14 C14            7.3303     5.0218    -2.1023 C.ar    
  15 C15            6.2277     5.4467    -1.3798 C.ar    
  16 C16            5.2249     4.5543    -1.0574 C.ar    
  17 O17           -0.2392    -2.4044    -0.5151 O.2     
  18 O18            4.3545     1.0961    -1.4543 O.2     
  19 C19            0.9476    -4.1758     0.4965 C.3     
  20 Cl20           6.1032     7.1059    -0.8846 Cl      
  21 C21           -0.1839    -5.0221    -0.0903 C.3     
  22 C22            0.0396    -6.4923     0.2695 C.3     
  23 C23            1.3778    -6.9604    -0.3058 C.3     
  24 C24            2.5093    -6.1141     0.2810 C.3     
  25 C25            2.2858    -4.6439    -0.0788 C.3     
  26 H26           -1.2352     1.7323     0.0975 H       
  27 H27           -0.7781    -0.6478     0.5170 H       
  28 H28            3.4119     0.0749     0.0693 H       
  29 H29            0.6208     3.2894    -0.3296 H       
  30 H30            3.1463     3.5753    -0.0662 H       
  31 H31            2.4156    -2.0574     1.0171 H       
  32 H32            6.5291     1.7677    -2.4907 H       
  33 H33            8.2990     3.3765    -3.0637 H       
  34 H34            8.1105     5.7243    -2.3555 H       
  35 H35            4.3654     4.8862    -0.4939 H       
  36 H36            0.9595    -4.2867     1.5808 H       
  37 H37           -1.1372    -4.6886     0.3195 H       
  38 H38           -0.1958    -4.9112    -1.1746 H       
  39 H39            0.0515    -6.6033     1.3538 H       
  40 H40           -0.7664    -7.0953    -0.1486 H       
  41 H41            1.5370    -8.0078    -0.0495 H       
  42 H42            1.3659    -6.8495    -1.3901 H       
  43 H43            2.5212    -6.2250     1.3653 H       
  44 H44            3.4626    -6.4476    -0.1288 H       
  45 H45            2.2739    -4.5329    -1.1630 H       
  46 H46            3.0919    -4.0409     0.3393 H       
@<TRIPOS>BOND
   1    1    2 ar
   2    1    6 ar
   3    1   26 1
   4    2    3 ar
   5    2   27 1
   6    3    4 ar
   7    3   10 1
   8    4    5 ar
   9    4   28 1
  10    5    6 ar
  11    5    7 1
  12    6   29 1
  13    7    8 am
  14    7   30 1
  15    8    9 1
  16    8   18 2
  17    9   12 ar
  18    9   16 ar
  19   10   11 am
  20   10   31 1
  21   11   17 2
  22   11   19 1
  23   12   13 ar
  24   12   32 1
  25   13   14 ar
  26   13   33 1
  27   14   15 ar
  28   14   34 1
  29   15   16 ar
  30   15   20 1
  31   16   35 1
  32   19   21 1
  33   19   25 1
  34   19   36 1
  35   21   22 1
  36   21   37 1
  37   21   38 1
  38   22   23 1
  39   22   39 1
  40   22   40 1
  41   23   24 1
  42   23   41 1
  43   23   42 1
  44   24   25 1
  45   24   43 1
  46   24   44 1
  47   25   45 1
  48   25   46 1

#	End of record

