#	Name: ASD06140006
#	Creating user name:	WinNT
#	Creation time:	15. 06. 2019 21:05

#	Modifying user name:	WinNT
#	Modification time:	15. 06. 2019 21:05

#	Program:	/corina/corina34_cracker 3.40 0067  02.08.2006

@<TRIPOS>MOLECULE
ASD06140006
  50   53    0    0    0
SMALL
NO_CHARGES


@<TRIPOS>ATOM
   1 C1            -0.0171     1.3854     0.0200 C.ar    
   2 C2            -0.0939     0.1404    -0.5909 C.ar    
   3 C3            -1.2812    -0.5647    -0.5710 C.ar    
   4 C4            -2.3928    -0.0325     0.0563 C.ar    
   5 C5            -2.3198     1.2069     0.6650 C.ar    
   6 C6            -1.1339     1.9147     0.6536 C.ar    
   7 C7            -3.6867    -0.8048     0.0760 C.3     
   8 N8             1.1840     2.1019     0.0020 N.pl3   
   9 C9             1.1649     3.4757    -0.0944 C.2     
  10 S10           -0.2859     4.4551    -0.3397 S.3     
  11 C11            0.5783     6.0592    -0.3434 C.3     
  12 C12            2.0497     5.6677    -0.1357 C.3     
  13 N13            2.1981     4.2345    -0.0137 N.2     
  14 C14            2.8608     6.1550    -1.3086 C.ar    
  15 C15            3.5976     7.3198    -1.2031 C.ar    
  16 C16            2.8725     5.4341    -2.4881 C.ar    
  17 C17            3.6165     5.8812    -3.5639 C.ar    
  18 C18            4.3485     7.0492    -3.4605 C.ar    
  19 C19            4.3416     7.7669    -2.2790 C.ar    
  20 S20            5.2973     7.6187    -4.8317 S.o2    
  21 N21            4.3161     8.6033    -5.7317 N.am    
  22 O22            6.3176     8.4502    -4.2960 O.2     
  23 O23            5.5664     6.4778    -5.6349 O.2     
  24 C24            4.1674    10.0556    -5.5573 C.3     
  25 C25            3.1339    10.5384    -6.5967 C.3     
  26 C26            2.3378     9.2467    -6.9211 C.3     
  27 C27            3.4518     8.1698    -6.8445 C.3     
  28 H28            0.7738    -0.2756    -1.0812 H       
  29 H29           -1.3417    -1.5327    -1.0461 H       
  30 H30           -3.1898     1.6200     1.1537 H       
  31 H31           -1.0774     2.8827     1.1293 H       
  32 H32           -3.7171    -1.4403     0.9611 H       
  33 H33           -4.5251    -0.1086     0.0997 H       
  34 H34           -3.7540    -1.4241    -0.8184 H       
  35 H35            2.0304     1.6313     0.0575 H       
  36 H36            0.4462     6.5650    -1.2998 H       
  37 H37            0.2279     6.6866     0.4762 H       
  38 H38            2.4203     6.1405     0.7738 H       
  39 H39            3.5917     7.8808    -0.2803 H       
  40 H40            2.3006     4.5216    -2.5689 H       
  41 H41            3.6262     5.3176    -4.4852 H       
  42 H42            4.9135     8.6794    -2.1982 H       
  43 H43            3.8105    10.2735    -4.5508 H       
  44 H44            5.1240    10.5494    -5.7287 H       
  45 H45            2.4798    11.2968    -6.1666 H       
  46 H46            3.6324    10.9183    -7.4885 H       
  47 H47            1.5640     9.0670    -6.1747 H       
  48 H48            1.9095     9.2928    -7.9223 H       
  49 H49            4.0136     8.1382    -7.7780 H       
  50 H50            3.0205     7.1927    -6.6270 H       
@<TRIPOS>BOND
   1    1    2 ar
   2    1    8 1
   3    1    6 ar
   4    2    3 ar
   5    2   28 1
   6    3    4 ar
   7    3   29 1
   8    4    5 ar
   9    4    7 1
  10    5    6 ar
  11    5   30 1
  12    6   31 1
  13    7   32 1
  14    7   33 1
  15    7   34 1
  16    8    9 1
  17    8   35 1
  18    9   10 1
  19    9   13 2
  20   10   11 1
  21   11   12 1
  22   11   36 1
  23   11   37 1
  24   12   13 1
  25   12   14 1
  26   12   38 1
  27   14   15 ar
  28   14   16 ar
  29   15   19 ar
  30   15   39 1
  31   16   17 ar
  32   16   40 1
  33   17   18 ar
  34   17   41 1
  35   18   19 ar
  36   18   20 1
  37   19   42 1
  38   20   21 am
  39   20   22 2
  40   20   23 2
  41   21   24 1
  42   21   27 1
  43   24   25 1
  44   24   43 1
  45   24   44 1
  46   25   26 1
  47   25   45 1
  48   25   46 1
  49   26   27 1
  50   26   47 1
  51   26   48 1
  52   27   49 1
  53   27   50 1

#	End of record

