#	Name: ASD04570007
#	Creating user name:	WinNT
#	Creation time:	15. 06. 2019 20:49

#	Modifying user name:	WinNT
#	Modification time:	15. 06. 2019 20:49

#	Program:	/corina/corina34_cracker 3.40 0067  02.08.2006

@<TRIPOS>MOLECULE
ASD04570007
 285  289    0    0    0
SMALL
NO_CHARGES


@<TRIPOS>ATOM
   1 C1             5.5331     6.5598    -3.7646 C.3     
   2 C2             7.0582     6.6705    -3.7120 C.3     
   3 C3             7.4507     8.1123    -3.5161 C.2     
   4 N4             7.5692     5.8675    -2.5931 N.3     
   5 O5             7.9886     8.4597    -2.4862 O.2     
   6 C6             5.0139     7.2599    -5.0220 C.3     
   7 C7             5.5277     6.5268    -6.2628 C.3     
   8 C8             3.4840     7.2461    -5.0185 C.3     
   9 C9             7.2532     3.8336    -0.6776 C.3     
  10 C10            7.3079     5.3060    -0.2651 C.3     
  11 C11            8.7285     5.6815     0.0694 C.2     
  12 N12            6.8280     6.1430    -1.3728 N.3     
  13 O13            9.2863     6.5599    -0.5537 O.2     
  14 O14            8.2473     3.5804    -1.6725 O.3     
  15 C15           10.7602     6.5934     2.3513 C.3     
  16 C16           10.7602     5.4063     1.3861 C.3     
  17 C17           11.4510     4.2332     2.0325 C.2     
  18 N18            9.3792     5.0412     1.0609 N.am    
  19 O19           10.8490     3.1945     2.2046 O.2     
  20 C20           10.1802     7.8014     1.6618 C.ar    
  21 C21            8.8209     8.0461     1.7255 C.ar    
  22 C22            8.2868     9.1528     1.0943 C.ar    
  23 C23            9.1157    10.0190     0.3962 C.ar    
  24 C24           10.4793     9.7713     0.3338 C.ar    
  25 C25           11.0092     8.6662     0.9715 C.ar    
  26 O26            8.5926    11.1082    -0.2260 O.3     
  27 C27           13.9640     2.2720     1.9635 C.3     
  28 C28           13.4093     3.1981     3.0477 C.3     
  29 C29           14.5402     3.6945     3.9111 C.2     
  30 N30           12.7378     4.3384     2.4193 N.am    
  31 O31           14.7634     4.8838     3.9935 O.2     
  32 N32           12.2513     0.1677    -0.6831 N.pl3   
  33 C33           12.5074    -0.7015    -1.7171 C.2     
  34 N34           11.5207    -1.2143    -2.3970 N.2     
  35 N35           13.8043    -1.0298    -2.0338 N.pl3   
  36 C36           12.8057     1.6701     1.1653 C.3     
  37 C37           13.3604     0.7440     0.0811 C.3     
  38 C38           15.8631     3.6764     6.8122 C.3     
  39 C39           16.4032     3.2995     5.4312 C.3     
  40 C40           17.4386     2.2141     5.5758 C.2     
  41 N41           15.3037     2.8169     4.5918 N.am    
  42 O42           17.1712     1.0747     5.2576 O.2     
  43 S43           14.6909     5.0510     6.6485 S.3     
  44 C44           19.1596     3.8589     6.3634 C.3     
  45 C45           20.5925     3.7048     6.9154 C.3     
  46 C46           19.7215     1.5331     6.3698 C.3     
  47 C47           19.1235     0.2762     6.9474 C.2     
  48 N48           18.6617     2.5096     6.0587 N.am    
  49 O49           17.9636     0.2637     7.3014 O.2     
  50 C50           20.6140     2.2382     7.4215 C.3     
  51 C51           18.5867    -2.8382     6.5254 C.3     
  52 C52           19.2964    -2.0558     7.6322 C.3     
  53 C53           20.3902    -2.9056     8.2260 C.2     
  54 N54           19.8777    -0.8339     7.0707 N.am    
  55 O55           21.5419    -2.5277     8.1843 O.2     
  56 S56           17.2701    -1.8153     5.8107 S.3     
  57 C57           21.4357    -4.4506    10.8117 C.3     
  58 C58           21.1518    -4.9115     9.3807 C.3     
  59 C59           20.7157    -6.3539     9.3947 C.2     
  60 N60           20.0885    -4.0854     8.8034 N.am    
  61 O61           19.6241    -6.6616     8.9648 O.2     
  62 N62           22.8181    -1.2039    12.1950 N.pl3   
  63 C63           23.1502    -0.5757    13.3720 C.2     
  64 N64           22.9868    -1.1924    14.5086 N.2     
  65 N65           23.6545     0.7031    13.3501 N.pl3   
  66 C66           21.9969    -3.0275    10.7873 C.3     
  67 C67           22.2807    -2.5666    12.2184 C.3     
  68 C68           21.4242    -9.3439     8.5435 C.3     
  69 C69           21.1146    -8.7043     9.8985 C.3     
  70 C70           21.8554    -9.4426    10.9835 C.2     
  71 N71           21.5386    -7.3021     9.8849 N.am    
  72 O72           22.6585    -8.8553    11.6771 O.2     
  73 C73           20.5901    -8.6855     7.4750 C.ar    
  74 C74           21.0752    -7.5790     6.8033 C.ar    
  75 C75           20.3100    -6.9750     5.8232 C.ar    
  76 C76           19.0600    -7.4779     5.5143 C.ar    
  77 C77           18.5753    -8.5850     6.1853 C.ar    
  78 C78           19.3422    -9.1916     7.1625 C.ar    
  79 C79           21.6134   -11.2927    13.5690 C.3     
  80 C80           22.3457   -11.4732    12.2378 C.3     
  81 C81           22.4095   -12.9392    11.8944 C.2     
  82 N82           21.6255   -10.7555    11.1831 N.am    
  83 O83           21.9033   -13.3445    10.8695 O.2     
  84 C84           21.6566    -9.8415    13.9733 C.ar    
  85 C85           20.6527    -8.9814    13.5692 C.ar    
  86 C86           20.6923    -7.6503    13.9400 C.ar    
  87 C87           21.7355    -7.1794    14.7152 C.ar    
  88 C88           22.7389    -8.0398    15.1200 C.ar    
  89 C89           22.6970    -9.3719    14.7528 C.ar    
  90 C90           24.2868   -15.4817    11.4728 C.3     
  91 C91           23.0912   -15.2249    12.3924 C.3     
  92 C92           23.2475   -16.0306    13.6563 C.2     
  93 N93           23.0292   -13.7998    12.7262 N.am    
  94 O94           23.3017   -15.4696    14.7302 O.2     
  95 C95           24.0687   -14.7629    10.1399 C.3     
  96 C96           25.2462   -15.0158     9.2342 C.2     
  97 O97           26.1656   -15.7008     9.6156 O.2     
  98 O98           25.2737   -14.4802     8.0037 O.3     
  99 C99           22.1016   -18.4146    15.4366 C.3     
 100 C100          23.4789   -18.1577    14.8220 C.3     
 101 C101          24.1389   -19.4738    14.5004 C.2     
 102 N102          23.3270   -17.3745    13.5933 N.am    
 103 O103          24.4515   -19.7321    13.3574 O.2     
 104 O104          21.3331   -19.2373    14.5564 O.3     
 105 C105          25.7353   -22.1745    16.4161 C.3     
 106 C106          25.0232   -21.6432    15.1704 C.3     
 107 C107          23.9778   -22.6345    14.7282 C.2     
 108 N108          24.3816   -20.3638    15.4830 N.am    
 109 O109          22.8168   -22.3062    14.6792 O.2     
 110 C110          26.8612   -21.2438    16.7863 C.2     
 111 N111          26.8100   -20.2225    17.6962 N.pl3   
 112 C112          28.0315   -19.6472    17.7202 C.2     
 113 N113          28.8046   -20.2713    16.8742 N.2     
 114 C114          28.1130   -21.2609    16.2898 C.2     
 115 C115           9.1280    10.4861    -4.8266 C.3     
 116 C116           7.6801    10.3935    -4.3412 C.3     
 117 C117           6.8146    11.3128    -5.1639 C.2     
 118 N118           7.2039     9.0155    -4.4855 N.am    
 119 O119           5.8910    10.8614    -5.8075 O.2     
 120 N120          12.3350     8.9414    -3.5246 N.pl3   
 121 C121          13.6866     8.8722    -3.7662 C.2     
 122 N122          14.4521     8.1596    -2.9883 N.2     
 123 N123          14.2308     9.5547    -4.8284 N.pl3   
 124 C124          10.0266     9.6497    -3.9135 C.3     
 125 C125          11.4746     9.7423    -4.3989 C.3     
 126 C126           4.9896    13.9273    -5.1748 C.3     
 127 C127           6.2256    13.5302    -5.9844 C.3     
 128 C128           7.0078    14.7666    -6.3459 C.2     
 129 N129           7.0670    12.6365    -5.1846 N.am    
 130 O130           8.1551    14.8891    -5.9722 O.2     
 131 C131           8.0169    16.6696    -8.6967 C.3     
 132 C132           7.1929    16.9380    -7.4358 C.3     
 133 C133           6.2408    18.0780    -7.6910 C.2     
 134 N134           6.4325    15.7361    -7.0844 N.am    
 135 O135           5.0437    17.8938    -7.6290 O.2     
 136 C136           9.0459    15.5743    -8.4099 C.3     
 137 C137           7.0891    16.2150    -9.8251 C.3     
 138 C138           6.4450    21.7320    -8.0346 C.3     
 139 C139           5.7975    20.3818    -8.3489 C.3     
 140 C140           5.4855    20.3050    -9.8213 C.2     
 141 N141           6.7198    19.3022    -7.9882 N.am    
 142 O142           5.9822    19.4379   -10.4993 O.2     
 143 C143           6.6478    21.8609    -6.5236 C.3     
 144 S144           7.4155    23.4617    -6.1510 S.3     
 145 C145           7.5723    23.4283    -4.3441 C.3     
 146 H146           5.2458     5.5086    -3.7891 H       
 147 H147           5.1038     7.0332    -2.8816 H       
 148 H148           7.4816     6.3024    -4.6465 H       
 149 H149           7.5478     4.8834    -2.8148 H       
 150 H150           5.3680     8.2907    -5.0364 H       
 151 H151           5.1159     5.5178    -6.2852 H       
 152 H152           5.2173     7.0659    -7.1579 H       
 153 H153           6.6159     6.4745    -6.2293 H       
 154 H154           3.1180     7.7684    -4.1346 H       
 155 H155           3.1141     7.7449    -5.9144 H       
 156 H156           3.1299     6.2153    -5.0042 H       
 157 H157           7.4419     3.2052     0.1928 H       
 158 H158           6.2673     3.6063    -1.0830 H       
 159 H159           6.6754     5.4622     0.6088 H       
 160 H160           6.8764     7.1220    -1.1336 H       
 161 H161           8.2702     2.6644    -1.9815 H       
 162 H162          10.1574     6.3501     3.2263 H       
 163 H163          11.7823     6.8085     2.6627 H       
 164 H164          11.2882     5.6806     0.4728 H       
 165 H165           8.9331     4.3387     1.5592 H       
 166 H166           8.1760     7.3713     2.2688 H       
 167 H167           7.2249     9.3433     1.1440 H       
 168 H168          11.1266    10.4441    -0.2090 H       
 169 H169          12.0712     8.4753     0.9269 H       
 170 H170           8.5611    11.9002     0.3279 H       
 171 H171          14.6090     2.8415     1.2944 H       
 172 H172          14.5392     1.4716     2.4287 H       
 173 H173          12.6957     2.6503     3.6632 H       
 174 H174          13.2192     5.1691     2.2816 H       
 175 H175          11.3363     0.3993    -0.4597 H       
 176 H176          11.7014    -1.8275    -3.1265 H       
 177 H177          14.5387    -0.6482    -1.5278 H       
 178 H178          13.9850    -1.6431    -2.7633 H       
 179 H179          12.1606     1.1006     1.8344 H       
 180 H180          12.2304     2.4705     0.7001 H       
 181 H181          13.9357    -0.0564     0.5463 H       
 182 H182          14.0054     1.3135    -0.5880 H       
 183 H183          15.3562     2.8169     7.2510 H       
 184 H184          16.6895     3.9782     7.4556 H       
 185 H185          16.8571     4.1752     4.9673 H       
 186 H186          15.1253     1.8657     4.5260 H       
 187 H187          14.3040     5.2716     7.9177 H       
 188 H188          18.5224     4.3289     7.1125 H       
 189 H189          19.1750     4.4621     5.4556 H       
 190 H190          21.3282     3.8506     6.1244 H       
 191 H191          20.7659     4.3991     7.7375 H       
 192 H192          20.2983     1.3013     5.4745 H       
 193 H193          21.6266     1.8350     7.4079 H       
 194 H194          20.1782     2.1623     8.4177 H       
 195 H195          19.3047    -3.1012     5.7486 H       
 196 H196          18.1542    -3.7474     6.9432 H       
 197 H197          18.5784    -1.7928     8.4090 H       
 198 H198          20.8054    -0.8239     6.7876 H       
 199 H199          16.7420    -2.6169     4.8685 H       
 200 H200          20.5111    -4.4667    11.3888 H       
 201 H201          22.1626    -5.1201    11.2716 H       
 202 H202          22.0562    -4.8112     8.7805 H       
 203 H203          19.1674    -4.3876     8.8368 H       
 204 H204          22.9397    -0.7449    11.3492 H       
 205 H205          23.2211    -0.7491    15.3390 H       
 206 H206          23.7760     1.1621    12.5042 H       
 207 H207          23.8887     1.1464    14.1804 H       
 208 H208          22.9215    -3.0114    10.2103 H       
 209 H209          21.2699    -2.3581    10.3275 H       
 210 H210          23.0077    -3.2360    12.6782 H       
 211 H211          21.3562    -2.5827    12.7954 H       
 212 H212          22.4812    -9.2117     8.3124 H       
 213 H213          21.1911   -10.4080     8.5823 H       
 214 H214          20.0428    -8.7580    10.0892 H       
 215 H215          22.4116    -7.0560    10.2287 H       
 216 H216          22.0518    -7.1861     7.0446 H       
 217 H217          20.6887    -6.1101     5.2989 H       
 218 H218          18.4619    -7.0057     4.7491 H       
 219 H219          17.5985    -8.9778     5.9443 H       
 220 H220          18.9651   -10.0588     7.6841 H       
 221 H221          20.5760   -11.6085    13.4588 H       
 222 H222          22.0980   -11.8978    14.3352 H       
 223 H223          23.3570   -11.0755    12.3226 H       
 224 H224          20.9832   -11.2252    10.6283 H       
 225 H225          19.8377    -9.3492    12.9635 H       
 226 H226          19.9084    -6.9781    13.6237 H       
 227 H227          21.7668    -6.1393    15.0043 H       
 228 H228          23.5541    -7.6719    15.7254 H       
 229 H229          23.4790   -10.0449    15.0722 H       
 230 H230          25.1949   -15.1057    11.9440 H       
 231 H231          24.3858   -16.5527    11.2961 H       
 232 H232          22.1727   -15.5195    11.8849 H       
 233 H233          23.4341   -13.4756    13.5459 H       
 234 H234          23.1605   -15.1389     9.6687 H       
 235 H235          23.9697   -13.6919    10.3166 H       
 236 H236          26.0500   -14.6705     7.4593 H       
 237 H237          22.2199   -18.9196    16.3953 H       
 238 H238          21.5881   -17.4650    15.5872 H       
 239 H239          24.0959   -17.6055    15.5309 H       
 240 H240          23.2837   -17.8232    12.7344 H       
 241 H241          20.4461   -19.4412    14.8830 H       
 242 H242          25.0266   -22.2340    17.2421 H       
 243 H243          26.1368   -23.1666    16.2096 H       
 244 H244          25.7493   -21.4996    14.3703 H       
 245 H245          24.2671   -23.6386    14.4551 H       
 246 H246          24.1316   -20.1572    16.3972 H       
 247 H247          26.0400   -19.9609    18.2250 H       
 248 H248          28.3205   -18.8091    18.3370 H       
 249 H249          28.4926   -21.9490    15.5490 H       
 250 H250           9.1941    10.1080    -5.8468 H       
 251 H251           9.4534    11.5262    -4.8028 H       
 252 H252           7.6287    10.6877    -3.2929 H       
 253 H253           6.7110     8.7533    -5.2787 H       
 254 H254          11.9510     8.4599    -2.7752 H       
 255 H255          15.4058     8.1108    -3.1588 H       
 256 H256          13.6612    10.0850    -5.4073 H       
 257 H257          15.1845     9.5059    -4.9989 H       
 258 H258           9.9605    10.0278    -2.8933 H       
 259 H259           9.7013     8.6096    -3.9373 H       
 260 H260          11.7999    10.7824    -4.3751 H       
 261 H261          11.5407     9.3643    -5.4191 H       
 262 H262           4.3637    14.5922    -5.7698 H       
 263 H263           4.4239    13.0330    -4.9133 H       
 264 H264           5.3008    14.4394    -4.2643 H       
 265 H265           5.9144    13.0180    -6.8949 H       
 266 H266           7.8057    12.9975    -4.6699 H       
 267 H267           8.5318    17.5827    -8.9954 H       
 268 H268           7.8601    17.1988    -6.6143 H       
 269 H269           5.5149    15.6381    -7.3833 H       
 270 H270           9.6955    15.4502    -9.2764 H       
 271 H271           9.6450    15.8563    -7.5441 H       
 272 H272           8.5304    14.6361    -8.2051 H       
 273 H273           6.5741    15.3019    -9.5264 H       
 274 H274           6.3560    16.9953   -10.0294 H       
 275 H275           7.6761    16.0238   -10.7234 H       
 276 H276           7.4097    21.7982    -8.5377 H       
 277 H277           5.7971    22.5358    -8.3841 H       
 278 H278           4.8758    20.2788    -7.7763 H       
 279 H279           4.8177    21.0254   -10.2700 H       
 280 H280           7.6751    19.4685    -7.9632 H       
 281 H281           5.6831    21.7947    -6.0206 H       
 282 H282           7.2958    21.0571    -6.1741 H       
 283 H283           8.0295    24.3567    -4.0018 H       
 284 H284           6.5845    23.3229    -3.8956 H       
 285 H285           8.1971    22.5853    -4.0491 H       
@<TRIPOS>BOND
   1    1    6 1
   2    1    2 1
   3    1  146 1
   4    1  147 1
   5    2    4 1
   6    2    3 1
   7    2  148 1
   8    3    5 2
   9    3  118 am
  10    4   12 1
  11    4  149 1
  12    6    7 1
  13    6    8 1
  14    6  150 1
  15    7  151 1
  16    7  152 1
  17    7  153 1
  18    8  154 1
  19    8  155 1
  20    8  156 1
  21    9   14 1
  22    9   10 1
  23    9  157 1
  24    9  158 1
  25   10   12 1
  26   10   11 1
  27   10  159 1
  28   11   13 2
  29   11   18 am
  30   12  160 1
  31   14  161 1
  32   15   20 1
  33   15   16 1
  34   15  162 1
  35   15  163 1
  36   16   17 1
  37   16   18 1
  38   16  164 1
  39   17   19 2
  40   17   30 am
  41   18  165 1
  42   20   21 ar
  43   20   25 ar
  44   21   22 ar
  45   21  166 1
  46   22   23 ar
  47   22  167 1
  48   23   24 ar
  49   23   26 1
  50   24   25 ar
  51   24  168 1
  52   25  169 1
  53   26  170 1
  54   27   36 1
  55   27   28 1
  56   27  171 1
  57   27  172 1
  58   28   30 1
  59   28   29 1
  60   28  173 1
  61   29   31 2
  62   29   41 am
  63   30  174 1
  64   32   37 1
  65   32   33 1
  66   32  175 1
  67   33   34 2
  68   33   35 1
  69   34  176 1
  70   35  177 1
  71   35  178 1
  72   36   37 1
  73   36  179 1
  74   36  180 1
  75   37  181 1
  76   37  182 1
  77   38   43 1
  78   38   39 1
  79   38  183 1
  80   38  184 1
  81   39   40 1
  82   39   41 1
  83   39  185 1
  84   40   42 2
  85   40   48 am
  86   41  186 1
  87   43  187 1
  88   44   48 1
  89   44   45 1
  90   44  188 1
  91   44  189 1
  92   45   50 1
  93   45  190 1
  94   45  191 1
  95   46   48 1
  96   46   47 1
  97   46   50 1
  98   46  192 1
  99   47   49 2
 100   47   54 am
 101   50  193 1
 102   50  194 1
 103   51   56 1
 104   51   52 1
 105   51  195 1
 106   51  196 1
 107   52   53 1
 108   52   54 1
 109   52  197 1
 110   53   55 2
 111   53   60 am
 112   54  198 1
 113   56  199 1
 114   57   66 1
 115   57   58 1
 116   57  200 1
 117   57  201 1
 118   58   60 1
 119   58   59 1
 120   58  202 1
 121   59   61 2
 122   59   71 am
 123   60  203 1
 124   62   67 1
 125   62   63 1
 126   62  204 1
 127   63   64 2
 128   63   65 1
 129   64  205 1
 130   65  206 1
 131   65  207 1
 132   66   67 1
 133   66  208 1
 134   66  209 1
 135   67  210 1
 136   67  211 1
 137   68   73 1
 138   68   69 1
 139   68  212 1
 140   68  213 1
 141   69   70 1
 142   69   71 1
 143   69  214 1
 144   70   72 2
 145   70   82 am
 146   71  215 1
 147   73   74 ar
 148   73   78 ar
 149   74   75 ar
 150   74  216 1
 151   75   76 ar
 152   75  217 1
 153   76   77 ar
 154   76  218 1
 155   77   78 ar
 156   77  219 1
 157   78  220 1
 158   79   84 1
 159   79   80 1
 160   79  221 1
 161   79  222 1
 162   80   81 1
 163   80   82 1
 164   80  223 1
 165   81   83 2
 166   81   93 am
 167   82  224 1
 168   84   85 ar
 169   84   89 ar
 170   85   86 ar
 171   85  225 1
 172   86   87 ar
 173   86  226 1
 174   87   88 ar
 175   87  227 1
 176   88   89 ar
 177   88  228 1
 178   89  229 1
 179   90   95 1
 180   90   91 1
 181   90  230 1
 182   90  231 1
 183   91   93 1
 184   91   92 1
 185   91  232 1
 186   92   94 2
 187   92  102 am
 188   93  233 1
 189   95   96 1
 190   95  234 1
 191   95  235 1
 192   96   97 2
 193   96   98 1
 194   98  236 1
 195   99  104 1
 196   99  100 1
 197   99  237 1
 198   99  238 1
 199  100  102 1
 200  100  101 1
 201  100  239 1
 202  101  103 2
 203  101  108 am
 204  102  240 1
 205  104  241 1
 206  105  110 1
 207  105  106 1
 208  105  242 1
 209  105  243 1
 210  106  107 1
 211  106  108 1
 212  106  244 1
 213  107  109 2
 214  107  245 1
 215  108  246 1
 216  110  111 1
 217  110  114 2
 218  111  112 1
 219  111  247 1
 220  112  113 2
 221  112  248 1
 222  113  114 1
 223  114  249 1
 224  115  124 1
 225  115  116 1
 226  115  250 1
 227  115  251 1
 228  116  118 1
 229  116  117 1
 230  116  252 1
 231  117  119 2
 232  117  129 am
 233  118  253 1
 234  120  125 1
 235  120  121 1
 236  120  254 1
 237  121  122 2
 238  121  123 1
 239  122  255 1
 240  123  256 1
 241  123  257 1
 242  124  125 1
 243  124  258 1
 244  124  259 1
 245  125  260 1
 246  125  261 1
 247  126  127 1
 248  126  262 1
 249  126  263 1
 250  126  264 1
 251  127  128 1
 252  127  129 1
 253  127  265 1
 254  128  130 2
 255  128  134 am
 256  129  266 1
 257  131  136 1
 258  131  137 1
 259  131  132 1
 260  131  267 1
 261  132  134 1
 262  132  133 1
 263  132  268 1
 264  133  135 2
 265  133  141 am
 266  134  269 1
 267  136  270 1
 268  136  271 1
 269  136  272 1
 270  137  273 1
 271  137  274 1
 272  137  275 1
 273  138  143 1
 274  138  139 1
 275  138  276 1
 276  138  277 1
 277  139  140 1
 278  139  141 1
 279  139  278 1
 280  140  142 2
 281  140  279 1
 282  141  280 1
 283  143  144 1
 284  143  281 1
 285  143  282 1
 286  144  145 1
 287  145  283 1
 288  145  284 1
 289  145  285 1

#	End of record

