#	Name: ASD00310442
#	Creating user name:	WinNT
#	Creation time:	15. 06. 2019 18:34

#	Modifying user name:	WinNT
#	Modification time:	15. 06. 2019 18:34

#	Program:	/corina/corina34_cracker 3.40 0067  02.08.2006

@<TRIPOS>MOLECULE
ASD00310442
  37   39    0    0    0
SMALL
NO_CHARGES


@<TRIPOS>ATOM
   1 N1            -0.0163     1.3499     0.0095 N.pl3   
   2 C2             0.0021    -0.0041     0.0020 C.2     
   3 C3             1.2922    -0.4483    -0.0127 C.2     
   4 C4             2.1476     0.7538    -0.0144 C.ar    
   5 C5             3.5232     0.9581    -0.0271 C.ar    
   6 C6             4.0242     2.2536    -0.0256 C.ar    
   7 C7             3.1468     3.3435    -0.0114 C.ar    
   8 C8             1.7853     3.1435     0.0012 C.ar    
   9 C9             1.2697     1.8501    -0.0001 C.ar    
  10 C10            1.7402    -1.8454    -0.0245 C.2     
  11 O11            2.9286    -2.1027    -0.0367 O.2     
  12 O12            0.8342    -2.8441    -0.0217 O.3     
  13 C13            5.4901     2.4819    -0.0386 C.ar    
  14 C14            6.0516     3.3601    -0.9641 C.ar    
  15 C15            7.4185     3.5706    -0.9728 C.ar    
  16 C16            8.2308     2.9053    -0.0576 C.ar    
  17 C17            7.6714     2.0322     0.8622 C.ar    
  18 C18            6.3068     1.8231     0.8779 C.ar    
  19 O19            9.5747     3.1122    -0.0669 O.3     
  20 C20           10.3479     2.3974     0.8992 C.3     
  21 O21            7.9693     4.4264    -1.8748 O.3     
  22 C22            7.0766     5.0738    -2.7837 C.3     
  23 Cl23           3.7804     4.9598    -0.0090 Cl      
  24 H24           -0.8206     1.8921     0.0163 H       
  25 H25           -0.8729    -0.6372     0.0073 H       
  26 H26            4.1977     0.1147    -0.0377 H       
  27 H27            1.1158     3.9909     0.0125 H       
  28 H28            1.1772    -3.7482    -0.0298 H       
  29 H29            5.4205     3.8750    -1.6733 H       
  30 H30            8.3037     1.5174     1.5704 H       
  31 H31            5.8728     1.1458     1.5985 H       
  32 H32           10.2155     1.3258     0.7497 H       
  33 H33           11.4010     2.6531     0.7830 H       
  34 H34           10.0167     2.6680     1.9018 H       
  35 H35            7.6438     5.7271    -3.4467 H       
  36 H36            6.5522     4.3230    -3.3748 H       
  37 H37            6.3529     5.6652    -2.2229 H       
@<TRIPOS>BOND
   1    1    2 1
   2    1    9 1
   3    1   24 1
   4    2    3 2
   5    2   25 1
   6    3    4 1
   7    3   10 1
   8    4    5 ar
   9    4    9 ar
  10    5    6 ar
  11    5   26 1
  12    6    7 ar
  13    6   13 1
  14    7    8 ar
  15    7   23 1
  16    8    9 ar
  17    8   27 1
  18   10   11 2
  19   10   12 1
  20   12   28 1
  21   13   14 ar
  22   13   18 ar
  23   14   15 ar
  24   14   29 1
  25   15   16 ar
  26   15   21 1
  27   16   17 ar
  28   16   19 1
  29   17   18 ar
  30   17   30 1
  31   18   31 1
  32   19   20 1
  33   20   32 1
  34   20   33 1
  35   20   34 1
  36   21   22 1
  37   22   35 1
  38   22   36 1
  39   22   37 1

#	End of record

