#	Name: ASD01720081
#	Creating user name:	WinNT
#	Creation time:	15. 06. 2019 19:23

#	Modifying user name:	WinNT
#	Modification time:	15. 06. 2019 19:23

#	Program:	/corina/corina34_cracker 3.40 0067  02.08.2006

@<TRIPOS>MOLECULE
ASD01720081
  67   70    0    0    0
SMALL
NO_CHARGES


@<TRIPOS>ATOM
   1 C1            -0.0100     1.5289     0.0834 C.3     
   2 C2             0.0125    -0.0013     0.0975 C.3     
   3 C3             0.7936    -0.4841     1.3228 C.3     
   4 C4             2.2080     0.1009     1.2797 C.3     
   5 C5             2.1218     1.6281     1.2314 C.3     
   6 N6             1.3661     2.0396     0.0414 N.3     
   7 C7             1.3802     3.4162    -0.1037 C.ar    
   8 C8             2.6011     4.0872    -0.1640 C.ar    
   9 C9             2.6177     5.4478    -0.3079 C.ar    
  10 C10            1.3938     6.1288    -0.3907 C.ar    
  11 C11            0.1990     5.3912    -0.3232 C.ar    
  12 N12            0.2333     4.0745    -0.1886 N.ar    
  13 C13           -1.4207    -0.5327     0.1635 C.3     
  14 C14           -1.4048    -2.0356     0.0536 C.2     
  15 O15           -0.3549    -2.6215    -0.0653 O.2     
  16 O16           -2.5571    -2.7232     0.0878 O.3     
  17 N17           -1.0174     6.0432    -0.4024 N.pl3   
  18 C18            1.3614     7.5914    -0.5454 C.2     
  19 O19            0.3018     8.1606    -0.7268 O.2     
  20 N20            2.5058     8.3008    -0.4860 N.am    
  21 C21            2.4736     9.7574    -0.6400 C.3     
  22 C22            2.1731    10.4067     0.7124 C.3     
  23 C23            3.8306    10.2464    -1.1502 C.3     
  24 C24            3.7969    11.7676    -1.3110 C.3     
  25 C25            3.4964    12.4169     0.0414 C.3     
  26 C26            2.1394    11.9278     0.5516 C.3     
  27 C27           -2.2607     5.2702    -0.4566 C.3     
  28 C28           -3.4345     6.2118    -0.5389 C.ar    
  29 C29           -3.9069     6.6214    -1.7718 C.ar    
  30 C30           -4.9835     7.4851    -1.8472 C.ar    
  31 C31           -5.5881     7.9388    -0.6898 C.ar    
  32 C32           -5.1162     7.5285     0.5430 C.ar    
  33 C33           -4.0423     6.6614     0.6184 C.ar    
  34 H34           -0.5532     1.8760    -0.7955 H       
  35 H35           -0.5052     1.8931     0.9836 H       
  36 H36            0.4953    -0.3665    -0.8089 H       
  37 H37            0.2895    -0.1519     2.2303 H       
  38 H38            0.8492    -1.5727     1.3136 H       
  39 H39            2.7555    -0.2047     2.1713 H       
  40 H40            2.7253    -0.2627     0.3919 H       
  41 H41            1.6166     1.9918     2.1261 H       
  42 H42            3.1270     2.0473     1.1862 H       
  43 H43            3.5277     3.5365    -0.0972 H       
  44 H44            3.5528     5.9860    -0.3563 H       
  45 H45           -1.8726    -0.2424     1.1120 H       
  46 H46           -2.0015    -0.1144    -0.6586 H       
  47 H47           -2.4964    -3.6855     0.0137 H       
  48 H48           -1.0478     7.0126    -0.4221 H       
  49 H49            3.3508     7.8470    -0.3414 H       
  50 H50            1.6970    10.0301    -1.3545 H       
  51 H51            1.2064    10.0582     1.0759 H       
  52 H52            2.9497    10.1339     1.4270 H       
  53 H53            4.6072     9.9737    -0.4357 H       
  54 H54            4.0447     9.7839    -2.1137 H       
  55 H55            4.7636    12.1160    -1.6745 H       
  56 H56            3.0203    12.0403    -2.0256 H       
  57 H57            4.2730    12.1442     0.7559 H       
  58 H58            3.4724    13.5006    -0.0732 H       
  59 H59            1.3628    12.2005    -0.1629 H       
  60 H60            1.9253    12.3904     1.5151 H       
  61 H61           -2.2497     4.6256    -1.3355 H       
  62 H62           -2.3478     4.6586     0.4414 H       
  63 H63           -3.4346     6.2669    -2.6760 H       
  64 H64           -5.3522     7.8057    -2.8104 H       
  65 H65           -6.4288     8.6142    -0.7488 H       
  66 H66           -5.5884     7.8832     1.4473 H       
  67 H67           -3.6761     6.3378     1.5815 H       
@<TRIPOS>BOND
   1    1    2 1
   2    1    6 1
   3    1   34 1
   4    1   35 1
   5    2    3 1
   6    2   13 1
   7    2   36 1
   8    3    4 1
   9    3   37 1
  10    3   38 1
  11    4    5 1
  12    4   39 1
  13    4   40 1
  14    5    6 1
  15    5   41 1
  16    5   42 1
  17    6    7 1
  18    7    8 ar
  19    7   12 ar
  20    8    9 ar
  21    8   43 1
  22    9   10 ar
  23    9   44 1
  24   10   11 ar
  25   10   18 1
  26   11   12 ar
  27   11   17 1
  28   13   14 1
  29   13   45 1
  30   13   46 1
  31   14   15 2
  32   14   16 1
  33   16   47 1
  34   17   27 1
  35   17   48 1
  36   18   19 2
  37   18   20 am
  38   20   21 1
  39   20   49 1
  40   21   23 1
  41   21   22 1
  42   21   50 1
  43   22   26 1
  44   22   51 1
  45   22   52 1
  46   23   24 1
  47   23   53 1
  48   23   54 1
  49   24   25 1
  50   24   55 1
  51   24   56 1
  52   25   26 1
  53   25   57 1
  54   25   58 1
  55   26   59 1
  56   26   60 1
  57   27   28 1
  58   27   61 1
  59   27   62 1
  60   28   29 ar
  61   28   33 ar
  62   29   30 ar
  63   29   63 1
  64   30   31 ar
  65   30   64 1
  66   31   32 ar
  67   31   65 1
  68   32   33 ar
  69   32   66 1
  70   33   67 1

#	End of record

