#	Name: ASD01148516
#	Creating user name:	WinNT
#	Creation time:	15. 06. 2019 19:02

#	Modifying user name:	WinNT
#	Modification time:	15. 06. 2019 19:02

#	Program:	/corina/corina34_cracker 3.40 0067  02.08.2006

@<TRIPOS>MOLECULE
ASD01148516
  55   59    0    0    0
SMALL
NO_CHARGES


@<TRIPOS>ATOM
   1 C1            -0.0180     1.4357     0.0450 C.ar    
   2 C2            -0.0166     0.0527     0.0405 C.ar    
   3 C3             1.1837    -0.6376     0.0176 C.ar    
   4 C4             2.3796     0.0567    -0.0008 C.ar    
   5 C5             2.3764     1.4392     0.0038 C.ar    
   6 C6             1.1784     2.1282     0.0267 C.ar    
   7 C7             3.6798     2.1954    -0.0162 C.3     
   8 O8             4.6902     1.4630    -0.7387 O.3     
   9 C9             3.5588     3.4850    -0.8627 C.3     
  10 C10            4.0453     3.0315    -2.2260 C.2     
  11 N11            4.6592     1.9035    -2.0819 N.2     
  12 C12            3.8508     3.7524    -3.4957 C.ar    
  13 C13            4.3739     3.1996    -4.7426 C.ar    
  14 C14            3.1642     4.9585    -3.5160 C.ar    
  15 C15            2.9666     5.6565    -4.6943 C.ar    
  16 C16            3.4462     5.1807    -5.9067 C.ar    
  17 C17            4.1718     3.9135    -5.9475 C.ar    
  18 C18            3.2202     5.9465    -7.1460 C.2     
  19 O19            3.7317     5.5826    -8.1875 O.2     
  20 N20            2.4466     7.0500    -7.1247 N.am    
  21 C21            4.1463     2.5145     1.4056 C.3     
  22 F22            4.3127     1.3233     2.1201 F       
  23 F23            5.3641     3.2012     1.3537 F       
  24 F24            3.1887     3.3107     2.0429 F       
  25 Cl25           1.1872    -2.3736     0.0125 Cl      
  26 Cl26          -1.5187    -0.8174     0.0641 Cl      
  27 C27            2.2220     7.8110    -8.3563 C.3     
  28 C28            1.3290     8.9890    -8.0630 C.ar    
  29 N29            0.0199     8.8315    -8.0679 N.ar    
  30 C30           -0.8001     9.8336    -7.8170 C.ar    
  31 C31           -0.3100    11.0951    -7.5382 C.ar    
  32 C32            1.0615    11.2994    -7.5241 C.ar    
  33 C33            1.8920    10.2208    -7.7866 C.ar    
  34 C34            5.0677     1.9831    -4.7702 C.ar    
  35 C35            4.6731     3.3951    -7.1482 C.ar    
  36 C36            5.5386     1.5034    -5.9562 C.ar    
  37 C37            5.3441     2.2084    -7.1411 C.ar    
  38 H38           -0.9538     1.9748     0.0584 H       
  39 H39            3.3161    -0.4810    -0.0183 H       
  40 H40            1.1769     3.2082     0.0302 H       
  41 H41            2.5225     3.8190    -0.9131 H       
  42 H42            4.2008     4.2708    -0.4645 H       
  43 H43            2.7755     5.3608    -2.5922 H       
  44 H44            2.4269     6.5917    -4.6701 H       
  45 H45            2.0385     7.3403    -6.2940 H       
  46 H46            3.1770     8.1664    -8.7431 H       
  47 H47            1.7456     7.1697    -9.0979 H       
  48 H48           -1.8669     9.6662    -7.8300 H       
  49 H49           -0.9866    11.9118    -7.3343 H       
  50 H50            1.4731    12.2746    -7.3097 H       
  51 H51            2.9650    10.3433    -7.7835 H       
  52 H52            5.2289     1.4287    -3.8575 H       
  53 H53            4.5285     3.9319    -8.0741 H       
  54 H54            6.0734     0.5653    -5.9765 H       
  55 H55            5.7303     1.8095    -8.0674 H       
@<TRIPOS>BOND
   1    1    2 ar
   2    1    6 ar
   3    1   38 1
   4    2    3 ar
   5    2   26 1
   6    3    4 ar
   7    3   25 1
   8    4    5 ar
   9    4   39 1
  10    5    6 ar
  11    5    7 1
  12    6   40 1
  13    7    8 1
  14    7    9 1
  15    7   21 1
  16    8   11 1
  17    9   10 1
  18    9   41 1
  19    9   42 1
  20   10   11 2
  21   10   12 1
  22   12   13 ar
  23   12   14 ar
  24   13   34 ar
  25   13   17 ar
  26   14   15 ar
  27   14   43 1
  28   15   16 ar
  29   15   44 1
  30   16   17 ar
  31   16   18 1
  32   17   35 ar
  33   18   19 2
  34   18   20 am
  35   20   27 1
  36   20   45 1
  37   21   22 1
  38   21   23 1
  39   21   24 1
  40   27   28 1
  41   27   46 1
  42   27   47 1
  43   28   29 ar
  44   28   33 ar
  45   29   30 ar
  46   30   31 ar
  47   30   48 1
  48   31   32 ar
  49   31   49 1
  50   32   33 ar
  51   32   50 1
  52   33   51 1
  53   34   36 ar
  54   34   52 1
  55   35   37 ar
  56   35   53 1
  57   36   37 ar
  58   36   54 1
  59   37   55 1

#	End of record

