#	Name: ASD00310296
#	Creating user name:	WinNT
#	Creation time:	15. 06. 2019 18:34

#	Modifying user name:	WinNT
#	Modification time:	15. 06. 2019 18:34

#	Program:	/corina/corina34_cracker 3.40 0067  02.08.2006

@<TRIPOS>MOLECULE
ASD00310296
  37   37    0    0    0
SMALL
NO_CHARGES


@<TRIPOS>ATOM
   1 C1            -0.0184     1.5028     0.0103 C.2     
   2 C2             0.0021    -0.0041     0.0020 C.3     
   3 C3             1.4295    -0.4870    -0.0142 C.2     
   4 O4             1.0197     2.1211     0.0037 O.2     
   5 O5            -1.1898     2.1580     0.0194 O.3     
   6 O6             1.8427    -1.1811     0.8844 O.2     
   7 O7             2.2419    -0.1461    -1.0269 O.3     
   8 C8            -0.6897    -0.5226     1.2364 C.ar    
   9 C9            -1.8081    -1.3350     1.1158 C.ar    
  10 C10           -2.4429    -1.8108     2.2535 C.ar    
  11 C11           -1.9599    -1.4748     3.5046 C.ar    
  12 C12           -0.8449    -0.6643     3.6216 C.ar    
  13 C13           -0.2073    -0.1941     2.4883 C.ar    
  14 O14           -2.2811    -1.6635    -0.1151 O.3     
  15 C15           -3.4362    -2.5034    -0.1634 C.3     
  16 Br16          -2.8243    -2.1228     5.0566 Br      
  17 C17           -1.1335     3.6089     0.0270 C.3     
  18 C18           -2.5551     4.1744     0.0369 C.3     
  19 C19            3.6038    -0.6471    -0.9768 C.3     
  20 C20            4.3726    -0.1583    -2.2060 C.3     
  21 H21           -0.5153    -0.3696    -0.8850 H       
  22 H22           -3.3138    -2.4430     2.1621 H       
  23 H23           -0.4691    -0.4024     4.5996 H       
  24 H24            0.6658     0.4345     2.5822 H       
  25 H25           -3.7081    -2.6880    -1.2027 H       
  26 H26           -3.2172    -3.4511     0.3287 H       
  27 H27           -4.2645    -2.0119     0.3470 H       
  28 H28           -0.6017     3.9472     0.9164 H       
  29 H29           -0.6102     3.9569    -0.8636 H       
  30 H30           -3.0869     3.8361    -0.8525 H       
  31 H31           -3.0784     3.8265     0.9275 H       
  32 H32           -2.5128     5.2636     0.0426 H       
  33 H33            4.0924    -0.2816    -0.0736 H       
  34 H34            3.5898    -1.7370    -0.9666 H       
  35 H35            3.8840    -0.5239    -3.1092 H       
  36 H36            4.3865     0.9315    -2.2161 H       
  37 H37            5.3949    -0.5345    -2.1684 H       
@<TRIPOS>BOND
   1    1    2 1
   2    1    4 2
   3    1    5 1
   4    2    3 1
   5    2    8 1
   6    2   21 1
   7    3    6 2
   8    3    7 1
   9    5   17 1
  10    7   19 1
  11    8    9 ar
  12    8   13 ar
  13    9   10 ar
  14    9   14 1
  15   10   11 ar
  16   10   22 1
  17   11   12 ar
  18   11   16 1
  19   12   13 ar
  20   12   23 1
  21   13   24 1
  22   14   15 1
  23   15   25 1
  24   15   26 1
  25   15   27 1
  26   17   18 1
  27   17   28 1
  28   17   29 1
  29   18   30 1
  30   18   31 1
  31   18   32 1
  32   19   20 1
  33   19   33 1
  34   19   34 1
  35   20   35 1
  36   20   36 1
  37   20   37 1

#	End of record

