#	Name: ASD01200453
#	Creating user name:	WinNT
#	Creation time:	15. 06. 2019 19:09

#	Modifying user name:	WinNT
#	Modification time:	15. 06. 2019 19:09

#	Program:	/corina/corina34_cracker 3.40 0067  02.08.2006

@<TRIPOS>MOLECULE
ASD01200453
  23   24    0    0    0
SMALL
NO_CHARGES


@<TRIPOS>ATOM
   1 C1            -0.0167     1.3830     0.0096 C.ar    
   2 C2             0.0021    -0.0041     0.0020 C.ar    
   3 C3             1.2086    -0.6798    -0.0127 C.ar    
   4 C4             2.4026     0.0314    -0.0202 C.ar    
   5 C5             2.3823     1.4211    -0.0130 C.ar    
   6 C6             1.1743     2.0942     0.0021 C.ar    
   7 O7            -1.2034     2.0460     0.0189 O.3     
   8 N8             3.6285    -0.6534    -0.0346 N.pl3   
   9 N9             3.7958    -2.0443    -0.0432 N.2     
  10 C10            5.0794    -2.3020    -0.0560 C.2     
  11 C11            5.7700    -1.0857    -0.0559 C.2     
  12 C12            4.8558    -0.0874    -0.0486 C.2     
  13 C13            7.2674    -0.9165    -0.0677 C.3     
  14 F14            7.8788    -2.1748    -0.0794 F       
  15 F15            7.6471    -0.2029    -1.2095 F       
  16 F16            7.6664    -0.2148     1.0750 F       
  17 F17            3.5420     2.1140    -0.0199 F       
  18 F18            1.2266    -2.0307    -0.0192 F       
  19 H19           -0.9259    -0.5565     0.0079 H       
  20 H20            1.1582     3.1741     0.0080 H       
  21 H21           -1.5426     2.2330     0.9049 H       
  22 H22            5.5277    -3.2845    -0.0646 H       
  23 H23            5.0688     0.9714    -0.0506 H       
@<TRIPOS>BOND
   1    1    2 ar
   2    1    6 ar
   3    1    7 1
   4    2    3 ar
   5    2   19 1
   6    3    4 ar
   7    3   18 1
   8    4    5 ar
   9    4    8 1
  10    5    6 ar
  11    5   17 1
  12    6   20 1
  13    7   21 1
  14    8    9 1
  15    8   12 1
  16    9   10 2
  17   10   11 1
  18   10   22 1
  19   11   12 2
  20   11   13 1
  21   12   23 1
  22   13   14 1
  23   13   15 1
  24   13   16 1

#	End of record

