#	Name: ASD00845405
#	Creating user name:	WinNT
#	Creation time:	15. 06. 2019 18:52

#	Modifying user name:	WinNT
#	Modification time:	15. 06. 2019 18:52

#	Program:	/corina/corina34_cracker 3.40 0067  02.08.2006

@<TRIPOS>MOLECULE
ASD00845405
  83   88    0    0    0
SMALL
NO_CHARGES


@<TRIPOS>ATOM
   1 F1            -0.0915    -3.1263     4.7193 F       
   2 C2            -0.0167     1.3829     0.0096 C.ar    
   3 C3             0.0021    -0.0041     0.0020 C.ar    
   4 C4             1.2143    -0.6791    -0.0132 C.ar    
   5 C5             2.3989     0.0312    -0.0207 C.ar    
   6 C6             2.3774     1.4139    -0.0126 C.ar    
   7 C7             1.1710     2.0888     0.0021 C.ar    
   8 C8             1.2384    -2.1858    -0.0210 C.3     
   9 C9             0.4953    -2.7219    -1.2261 C.2     
  10 O10            2.6067    -2.6715    -0.0097 O.3     
  11 C11            3.3980    -2.2932    -1.0313 C.2     
  12 N12            4.6790    -2.7090    -1.0812 N.am    
  13 O13            2.9572    -1.5768    -1.9082 O.2     
  14 C14            5.5605    -2.3076    -2.1880 C.3     
  15 C15            6.8541    -1.7366    -1.5975 C.3     
  16 N16            7.4341    -2.7109    -0.6636 N.3     
  17 C17            6.5391    -2.9555     0.4753 C.3     
  18 C18            5.2343    -3.5714    -0.0270 C.3     
  19 C19            8.7610    -2.2767    -0.2066 C.3     
  20 C20            9.2797    -3.2491     0.8563 C.3     
  21 C21           10.6869    -2.8265     1.2842 C.3     
  22 N22           11.5768    -2.8299     0.1161 N.3     
  23 C23           11.1252    -1.8689    -0.8983 C.3     
  24 C24            9.7310    -2.2630    -1.3913 C.3     
  25 H25           12.5311    -2.6470     0.3880 H       
  26 O26            0.7741    -2.5257    -2.3901 O.2     
  27 N27           -0.5308    -3.4561    -0.7641 N.am    
  28 C28            0.4693    -2.7338     1.1591 C.ar    
  29 C29           -0.5745    -3.4835     0.6314 C.ar    
  30 C30            0.6336    -2.6122     2.5207 C.ar    
  31 C31           -0.2493    -3.2426     3.3826 C.ar    
  32 C32           -1.2952    -3.9938     2.8681 C.ar    
  33 C33           -1.4597    -4.1156     1.5017 C.ar    
  34 F34           -2.1572    -4.6094     3.7067 F       
  35 C35           -0.9812    -5.8525    -2.0402 C.ar    
  36 C36            0.1971    -6.0109    -2.7547 C.ar    
  37 C37           -1.6517    -6.9616    -1.5612 C.ar    
  38 C38           -1.1488    -8.2283    -1.7931 C.ar    
  39 C39            0.0257    -8.3888    -2.5051 C.ar    
  40 C40            0.6995    -7.2833    -2.9865 C.ar    
  41 H41            0.4165    -9.3795    -2.6850 H       
  42 O42            0.8582    -4.9216    -3.2273 O.3     
  43 C43            2.0651    -5.1601    -3.9544 C.3     
  44 O44           -1.1648    -0.7006     0.0099 O.3     
  45 C45           -2.3744     0.0601     0.0260 C.3     
  46 C46           -3.5740    -0.8895     0.0328 C.3     
  47 F47           -3.5417    -1.6899    -1.1142 F       
  48 F48           -3.5190    -1.7022     1.1702 F       
  49 S49           -1.6186    -4.2380    -1.7375 S.o2    
  50 O50           -2.7978    -4.4107    -0.9636 O.2     
  51 O51           -1.6007    -3.5589    -2.9856 O.2     
  52 H52           -0.9590     1.9106     0.0170 H       
  53 H53            3.3426    -0.4937    -0.0325 H       
  54 H54            3.3047     1.9675    -0.0178 H       
  55 H55            1.1569     3.1687     0.0084 H       
  56 H56            5.7917    -3.1757    -2.8053 H       
  57 H57            5.0664    -1.5464    -2.7919 H       
  58 H58            7.5631    -1.5360    -2.4008 H       
  59 H59            6.6338    -0.8104    -1.0666 H       
  60 H60            7.0197    -3.6389     1.1753 H       
  61 H61            6.3233    -2.0124     0.9773 H       
  62 H62            4.5248    -3.6485     0.7968 H       
  63 H63            5.4313    -4.5615    -0.4382 H       
  64 H64            8.6902    -1.2757     0.2190 H       
  65 H65            8.6158    -3.2314     1.7207 H       
  66 H66            9.3125    -4.2570     0.4425 H       
  67 H67           10.6511    -1.8240     1.7106 H       
  68 H68           11.0648    -3.5251     2.0306 H       
  69 H69           11.0873    -0.8709    -0.4617 H       
  70 H70           11.8213    -1.8721    -1.7370 H       
  71 H71            9.7709    -3.2553    -1.8405 H       
  72 H72            9.3896    -1.5407    -2.1328 H       
  73 H73            1.4500    -2.0263     2.9165 H       
  74 H74           -2.2766    -4.7018     1.1074 H       
  75 H75           -2.5692    -6.8388    -1.0049 H       
  76 H76           -1.6740    -9.0939    -1.4173 H       
  77 H77            1.6164    -7.4093    -3.5431 H       
  78 H78            2.4908    -4.2089    -4.2739 H       
  79 H79            2.7778    -5.6806    -3.3147 H       
  80 H80            1.8472    -5.7728    -4.8292 H       
  81 H81           -2.3995     0.6837     0.9196 H       
  82 H82           -2.4172     0.6932    -0.8603 H       
  83 H83           -4.4966    -0.3093     0.0451 H       
@<TRIPOS>BOND
   1    1   31 1
   2    2    3 ar
   3    2    7 ar
   4    2   52 1
   5    3    4 ar
   6    3   44 1
   7    4    5 ar
   8    4    8 1
   9    5    6 ar
  10    5   53 1
  11    6    7 ar
  12    6   54 1
  13    7   55 1
  14    8    9 1
  15    8   10 1
  16    8   28 1
  17    9   26 2
  18    9   27 am
  19   10   11 1
  20   11   12 am
  21   11   13 2
  22   12   14 1
  23   12   18 1
  24   14   15 1
  25   14   56 1
  26   14   57 1
  27   15   16 1
  28   15   58 1
  29   15   59 1
  30   16   17 1
  31   16   19 1
  32   17   18 1
  33   17   60 1
  34   17   61 1
  35   18   62 1
  36   18   63 1
  37   19   20 1
  38   19   24 1
  39   19   64 1
  40   20   21 1
  41   20   65 1
  42   20   66 1
  43   21   22 1
  44   21   67 1
  45   21   68 1
  46   22   23 1
  47   22   25 1
  48   23   24 1
  49   23   69 1
  50   23   70 1
  51   24   71 1
  52   24   72 1
  53   27   49 am
  54   27   29 1
  55   28   29 ar
  56   28   30 ar
  57   29   33 ar
  58   30   31 ar
  59   30   73 1
  60   31   32 ar
  61   32   33 ar
  62   32   34 1
  63   33   74 1
  64   35   36 ar
  65   35   37 ar
  66   35   49 1
  67   36   42 1
  68   36   40 ar
  69   37   38 ar
  70   37   75 1
  71   38   39 ar
  72   38   76 1
  73   39   40 ar
  74   39   41 1
  75   40   77 1
  76   42   43 1
  77   43   78 1
  78   43   79 1
  79   43   80 1
  80   44   45 1
  81   45   46 1
  82   45   81 1
  83   45   82 1
  84   46   47 1
  85   46   48 1
  86   46   83 1
  87   49   50 2
  88   49   51 2

#	End of record

