#	Name: ASD04880011
#	Creating user name:	WinNT
#	Creation time:	15. 06. 2019 20:52

#	Modifying user name:	WinNT
#	Modification time:	15. 06. 2019 20:52

#	Program:	/corina/corina34_cracker 3.40 0067  02.08.2006

@<TRIPOS>MOLECULE
ASD04880011
  36   38    0    0    0
SMALL
NO_CHARGES


@<TRIPOS>ATOM
   1 C1             0.0021     1.4854     0.3039 C.2     
   2 C2             0.0172     0.0085     0.2645 C.ar    
   3 C3             1.2293    -0.6760     0.1942 C.ar    
   4 C4             1.2341    -2.0697     0.1579 C.ar    
   5 C5             0.0248    -2.7705     0.1923 C.ar    
   6 C6            -1.1716    -2.0855     0.2619 C.ar    
   7 C7            -1.1832    -0.7052     0.3035 C.ar    
   8 O8             1.0468     2.1044     0.2750 O.2     
   9 O9            -1.1705     2.1455     0.3663 O.3     
  10 N10            4.7298    -3.1727    -0.0230 N.am    
  11 N11            3.6793    -2.2599     0.0463 N.2     
  12 C12            2.5117    -2.8029     0.0830 C.2     
  13 C13            2.6527    -4.3076     0.0378 C.3     
  14 C14            4.1755    -4.5359    -0.0342 C.3     
  15 C15            6.0392    -2.8584    -0.0768 C.2     
  16 C16            6.4558    -1.4450    -0.1909 C.ar    
  17 C17            5.5003    -0.4463    -0.3868 C.ar    
  18 C18            5.8968     0.8729    -0.4922 C.ar    
  19 C19            7.2398     1.2042    -0.4036 C.ar    
  20 C20            8.1898     0.2180    -0.2096 C.ar    
  21 C21            7.8058    -1.1026    -0.0976 C.ar    
  22 O22            6.8779    -3.7376    -0.0314 O.2     
  23 F23            4.9743     1.8415    -0.6822 F       
  24 H24            2.1603    -0.1293     0.1676 H       
  25 H25            0.0267    -3.8501     0.1639 H       
  26 H26           -2.1028    -2.6318     0.2882 H       
  27 H27           -2.1229    -0.1760     0.3622 H       
  28 H28           -1.1298     3.1114     0.3902 H       
  29 H29            2.2410    -4.7575     0.9413 H       
  30 H30            2.1632    -4.7111    -0.8486 H       
  31 H31            4.4430    -5.0511    -0.9568 H       
  32 H32            4.5207    -5.0975     0.8338 H       
  33 H33            4.4538    -0.7043    -0.4561 H       
  34 H34            7.5456     2.2366    -0.4869 H       
  35 H35            9.2347     0.4826    -0.1415 H       
  36 H36            8.5490    -1.8706     0.0580 H       
@<TRIPOS>BOND
   1    1    2 1
   2    1    8 2
   3    1    9 1
   4    2    3 ar
   5    2    7 ar
   6    3    4 ar
   7    3   24 1
   8    4    5 ar
   9    4   12 1
  10    5    6 ar
  11    5   25 1
  12    6    7 ar
  13    6   26 1
  14    7   27 1
  15    9   28 1
  16   10   11 1
  17   10   14 1
  18   10   15 am
  19   11   12 2
  20   12   13 1
  21   13   14 1
  22   13   29 1
  23   13   30 1
  24   14   31 1
  25   14   32 1
  26   15   16 1
  27   15   22 2
  28   16   17 ar
  29   16   21 ar
  30   17   18 ar
  31   17   33 1
  32   18   19 ar
  33   18   23 1
  34   19   20 ar
  35   19   34 1
  36   20   21 ar
  37   20   35 1
  38   21   36 1

#	End of record

