#	Name: ASD04880010
#	Creating user name:	WinNT
#	Creation time:	15. 06. 2019 20:52

#	Modifying user name:	WinNT
#	Modification time:	15. 06. 2019 20:52

#	Program:	/corina/corina34_cracker 3.40 0067  02.08.2006

@<TRIPOS>MOLECULE
ASD04880010
  36   38    0    0    0
SMALL
NO_CHARGES


@<TRIPOS>ATOM
   1 C1            -0.0144     1.2117     0.0087 C.2     
   2 O2             0.0478    -0.0024     0.0311 O.2     
   3 N3             1.1160     1.9435    -0.0478 N.am    
   4 N4             1.1788     3.3282    -0.1901 N.2     
   5 C5             2.3770     3.8006    -0.2186 C.2     
   6 C6             3.3698     2.6681    -0.0845 C.3     
   7 C7             2.4853     1.4113     0.0370 C.3     
   8 C8             2.7265     5.2263    -0.3602 C.ar    
   9 C9             1.7193     6.1876    -0.4763 C.ar    
  10 C10            3.3828     7.9039    -0.6252 C.ar    
  11 C11            4.0657     5.6225    -0.3731 C.ar    
  12 C12            2.0535     7.5191    -0.6080 C.ar    
  13 C13            4.3852     6.9580    -0.5054 C.ar    
  14 C14            0.9687     8.5575    -0.7339 C.3     
  15 C15           -1.3298     1.8848     0.0373 C.ar    
  16 C16           -1.4039     3.2738     0.1560 C.ar    
  17 C17           -2.6370     3.8964     0.1816 C.ar    
  18 C18           -3.7975     3.1441     0.0901 C.ar    
  19 C19           -3.7287     1.7678    -0.0277 C.ar    
  20 C20           -2.5031     1.1349    -0.0602 C.ar    
  21 F21           -2.7118     5.2404     0.2965 F       
  22 H22            4.0046     2.6094    -0.9686 H       
  23 H23            3.9742     2.7939     0.8138 H       
  24 H24            2.6463     0.9178     0.9954 H       
  25 H25            2.6819     0.7252    -0.7868 H       
  26 H26            0.6816     5.8887    -0.4634 H       
  27 H27            3.6387     8.9480    -0.7289 H       
  28 H28            4.8493     4.8852    -0.2793 H       
  29 H29            5.4205     7.2653    -0.5200 H       
  30 H30            0.6895     8.9134     0.2579 H       
  31 H31            1.3335     9.3936    -1.3305 H       
  32 H32            0.0984     8.1167    -1.2200 H       
  33 H33           -0.4998     3.8600     0.2281 H       
  34 H34           -4.7594     3.6346     0.1112 H       
  35 H35           -4.6367     1.1873    -0.0986 H       
  36 H36           -2.4516     0.0604    -0.1567 H       
@<TRIPOS>BOND
   1    1    2 2
   2    1    3 am
   3    1   15 1
   4    3    4 1
   5    3    7 1
   6    4    5 2
   7    5    6 1
   8    5    8 1
   9    6    7 1
  10    6   22 1
  11    6   23 1
  12    7   24 1
  13    7   25 1
  14    8    9 ar
  15    8   11 ar
  16    9   12 ar
  17    9   26 1
  18   10   12 ar
  19   10   13 ar
  20   10   27 1
  21   11   13 ar
  22   11   28 1
  23   12   14 1
  24   13   29 1
  25   14   30 1
  26   14   31 1
  27   14   32 1
  28   15   16 ar
  29   15   20 ar
  30   16   17 ar
  31   16   33 1
  32   17   18 ar
  33   17   21 1
  34   18   19 ar
  35   18   34 1
  36   19   20 ar
  37   19   35 1
  38   20   36 1

#	End of record

