#	Name: ASD01028101
#	Creating user name:	WinNT
#	Creation time:	15. 06. 2019 18:56

#	Modifying user name:	WinNT
#	Modification time:	15. 06. 2019 18:56

#	Program:	/corina/corina34_cracker 3.40 0067  02.08.2006

@<TRIPOS>MOLECULE
ASD01028101
  67   70    0    0    0
SMALL
NO_CHARGES


@<TRIPOS>ATOM
   1 N1             2.2609    -0.8929     1.2772 N.pl3   
   2 C2             0.9710    -1.1375     0.5935 C.ar    
   3 C3            -0.2100    -0.7198     1.1785 C.ar    
   4 C4            -0.1808    -0.0170     2.5113 C.3     
   5 C5             0.9500    -1.7798    -0.6350 C.ar    
   6 C6            -0.2631    -2.0085    -1.2764 C.ar    
   7 C7            -1.4481    -1.5923    -0.6818 C.ar    
   8 C8            -1.4171    -0.9446     0.5444 C.ar    
   9 O9             1.9558    -2.2766    -1.4130 O.3     
  10 C10            1.3172    -3.1732    -2.3412 C.3     
  11 O11           -0.0190    -2.6493    -2.4577 O.3     
  12 O12           -2.6363    -1.8135    -1.3048 O.3     
  13 C13           -3.7626    -1.3246    -0.7226 C.ar    
  14 C14           -4.0557     0.0305    -0.7846 C.ar    
  15 N15           -5.1472     0.5090    -0.2217 N.ar    
  16 C16           -5.9980    -0.2702     0.4173 C.ar    
  17 C17           -5.7742    -1.6301     0.5217 C.ar    
  18 C18           -4.6415    -2.1761    -0.0607 C.ar    
  19 C19           -7.2306     0.3304     1.0425 C.3     
  20 C20           -2.5003    -0.4039     3.4644 C.3     
  21 C21           -2.3768    -0.2944     4.9854 C.3     
  22 C22           -3.3997    -1.2193     5.6481 C.3     
  23 C23           -3.2761    -1.1098     7.1692 C.3     
  24 O24           -4.1835    -1.9324     9.2526 O.3     
  25 C25           -4.2990    -2.0347     7.8319 C.3     
  26 N26           -1.5209     0.4817     2.8298 N.am    
  27 O27            2.6630    -1.6773     2.1177 O.2     
  28 O28            2.9226     0.0902     0.9956 O.2     
  29 C29           -1.8528     1.7552     2.5392 C.2     
  30 O30           -3.0488     2.2428     2.9194 O.3     
  31 O31           -1.0726     2.4633     1.9339 O.2     
  32 C32           -3.3737     3.5940     2.4990 C.3     
  33 C33           -4.7818     3.9264     2.9207 C.ar    
  34 C34           -5.0087     4.5830     4.1158 C.ar    
  35 C35           -6.3003     4.8878     4.5026 C.ar    
  36 C36           -7.3651     4.5366     3.6940 C.ar    
  37 C37           -7.1381     3.8809     2.4984 C.ar    
  38 C38           -5.8462     3.5799     2.1096 C.ar    
  39 H39            0.1400    -0.7160     3.2837 H       
  40 H40            0.5168     0.8194     2.4658 H       
  41 H41           -2.3378    -0.6213     1.0071 H       
  42 H42            1.8233    -3.1498    -3.3063 H       
  43 H43            1.2976    -4.1874    -1.9423 H       
  44 H44           -3.3822     0.6999    -1.2991 H       
  45 H45           -6.4762    -2.2605     1.0472 H       
  46 H46           -4.4416    -3.2354     0.0049 H       
  47 H47           -8.0187     0.4047     0.2931 H       
  48 H48           -7.5677    -0.3035     1.8626 H       
  49 H49           -6.9971     1.3244     1.4239 H       
  50 H50           -2.3121    -1.4328     3.1577 H       
  51 H51           -3.5053    -0.1120     3.1595 H       
  52 H52           -1.3718    -0.5864     5.2903 H       
  53 H53           -2.5650     0.7345     5.2921 H       
  54 H54           -4.4046    -0.9274     5.3433 H       
  55 H55           -3.2114    -2.2482     5.3415 H       
  56 H56           -2.2711    -1.4017     7.4741 H       
  57 H57           -3.4643    -0.0809     7.4759 H       
  58 H58           -4.8034    -2.4930     9.7389 H       
  59 H59           -5.3039    -1.7428     7.5271 H       
  60 H60           -4.1108    -3.0636     7.5252 H       
  61 H61           -2.6803     4.2955     2.9630 H       
  62 H62           -3.2925     3.6666     1.4145 H       
  63 H63           -4.1768     4.8574     4.7476 H       
  64 H64           -6.4776     5.4001     5.4367 H       
  65 H65           -8.3742     4.7741     3.9966 H       
  66 H66           -7.9700     3.6061     1.8669 H       
  67 H67           -5.6689     3.0676     1.1755 H       
@<TRIPOS>BOND
   1    1    2 1
   2    1   27 2
   3    1   28 2
   4    2    3 ar
   5    2    5 ar
   6    3    4 1
   7    3    8 ar
   8    4   26 1
   9    4   39 1
  10    4   40 1
  11    5    6 ar
  12    5    9 1
  13    6    7 ar
  14    6   11 1
  15    7    8 ar
  16    7   12 1
  17    8   41 1
  18    9   10 1
  19   10   11 1
  20   10   42 1
  21   10   43 1
  22   12   13 1
  23   13   14 ar
  24   13   18 ar
  25   14   15 ar
  26   14   44 1
  27   15   16 ar
  28   16   17 ar
  29   16   19 1
  30   17   18 ar
  31   17   45 1
  32   18   46 1
  33   19   47 1
  34   19   48 1
  35   19   49 1
  36   20   21 1
  37   20   26 1
  38   20   50 1
  39   20   51 1
  40   21   22 1
  41   21   52 1
  42   21   53 1
  43   22   23 1
  44   22   54 1
  45   22   55 1
  46   23   25 1
  47   23   56 1
  48   23   57 1
  49   24   25 1
  50   24   58 1
  51   25   59 1
  52   25   60 1
  53   26   29 am
  54   29   30 1
  55   29   31 2
  56   30   32 1
  57   32   33 1
  58   32   61 1
  59   32   62 1
  60   33   34 ar
  61   33   38 ar
  62   34   35 ar
  63   34   63 1
  64   35   36 ar
  65   35   64 1
  66   36   37 ar
  67   36   65 1
  68   37   38 ar
  69   37   66 1
  70   38   67 1

#	End of record

