#	Name: ASD08170425
#	Creating user name:	WinNT
#	Creation time:	15. 06. 2019 21:17

#	Modifying user name:	WinNT
#	Modification time:	15. 06. 2019 21:17

#	Program:	/corina/corina34_cracker 3.40 0067  02.08.2006

@<TRIPOS>MOLECULE
ASD08170425
  38   39    0    0    0
SMALL
NO_CHARGES


@<TRIPOS>ATOM
   1 N1            -0.0155     1.2947     0.0092 N.2     
   2 C2             0.0021    -0.0041     0.0020 C.2     
   3 S3             1.6320    -0.5310    -0.0164 S.3     
   4 C4             2.1557     1.1534    -0.0123 C.2     
   5 N5             1.0945     1.8960     0.0018 N.2     
   6 C6             7.4469     2.9383     2.8335 C.2     
   7 S7             8.8921     1.9270     2.8149 S.3     
   8 C8             9.8583     3.3416     2.8128 C.2     
   9 N9             9.0772     4.3793     2.8253 N.2     
  10 N10            7.8314     4.1751     2.8308 N.2     
  11 N11           -1.1168    -0.8300     0.0087 N.am    
  12 C12           -2.3521    -0.2911     0.0233 C.2     
  13 O13           -2.4879     0.9140     0.0307 O.2     
  14 C14           -3.5646    -1.1861     0.0305 C.3     
  15 C15            3.5816     1.6410    -0.0229 C.3     
  16 C16            4.0775     1.7984     1.4160 C.3     
  17 C17            5.5251     2.2933     1.4053 C.3     
  18 C18            6.0210     2.4507     2.8441 C.3     
  19 N19           11.2487     3.3736     2.8003 N.am    
  20 C20           11.8955     4.5560     2.8000 C.2     
  21 O21           11.2652     5.5921     2.8107 O.2     
  22 C22           13.4021     4.5907     2.7864 C.3     
  23 H23           -1.0082    -1.7939     0.0028 H       
  24 H24           -3.2466    -2.2287     0.0222 H       
  25 H25           -4.1534    -0.9930     0.9272 H       
  26 H26           -4.1706    -0.9840    -0.8526 H       
  27 H27            4.2086     0.9191    -0.5463 H       
  28 H28            3.6328     2.6033    -0.5321 H       
  29 H29            3.4505     2.5202     1.9394 H       
  30 H30            4.0263     0.8360     1.9252 H       
  31 H31            6.1521     1.5715     0.8818 H       
  32 H32            5.5763     3.2557     0.8960 H       
  33 H33            5.9698     1.4884     3.3534 H       
  34 H34            5.3940     3.1726     3.3675 H       
  35 H35           11.7528     2.5450     2.7918 H       
  36 H36           13.7889     3.5717     2.7781 H       
  37 H37           13.7454     5.1170     1.8958 H       
  38 H38           13.7616     5.1085     3.6756 H       
@<TRIPOS>BOND
   1    1    2 2
   2    1    5 1
   3    2    3 1
   4    2   11 1
   5    3    4 1
   6    4    5 2
   7    4   15 1
   8    6    7 1
   9    6   18 1
  10    6   10 2
  11    7    8 1
  12    8    9 2
  13    8   19 1
  14    9   10 1
  15   11   12 am
  16   11   23 1
  17   12   13 2
  18   12   14 1
  19   14   24 1
  20   14   25 1
  21   14   26 1
  22   15   16 1
  23   15   27 1
  24   15   28 1
  25   16   17 1
  26   16   29 1
  27   16   30 1
  28   17   18 1
  29   17   31 1
  30   17   32 1
  31   18   33 1
  32   18   34 1
  33   19   20 am
  34   19   35 1
  35   20   21 2
  36   20   22 1
  37   22   36 1
  38   22   37 1
  39   22   38 1

#	End of record

