#	Name: ASD01884598
#	Creating user name:	WinNT
#	Creation time:	15. 06. 2019 19:48

#	Modifying user name:	WinNT
#	Modification time:	15. 06. 2019 19:48

#	Program:	/corina/corina34_cracker 3.40 0067  02.08.2006

@<TRIPOS>MOLECULE
ASD01884598
  49   51    0    0    0
SMALL
NO_CHARGES


@<TRIPOS>ATOM
   1 C1             0.7761     1.0534     1.9449 C.2     
   2 C2             0.5000    -0.1541     1.3754 C.2     
   3 C3             1.2978    -0.6128     0.3152 C.2     
   4 C4             2.3273     0.1413    -0.1301 C.2     
   5 N5             2.6025     1.3491     0.4411 N.am    
   6 C6             1.8538     1.8143     1.4592 C.2     
   7 O7             2.1113     2.8961     1.9607 O.2     
   8 C8             3.6345     2.0843    -0.0181 C.2     
   9 C9             1.0069    -1.9454    -0.3255 C.3     
  10 C10            1.6794    -3.0395     0.4631 C.ar    
  11 C11            1.0071    -3.6532     1.5038 C.ar    
  12 C12            1.6213    -4.6564     2.2283 C.ar    
  13 C13            2.9138    -5.0478     1.9108 C.ar    
  14 C14            3.5863    -4.4304     0.8662 C.ar    
  15 C15            2.9656    -3.4317     0.1411 C.ar    
  16 O16            3.5204    -6.0341     2.6223 O.3     
  17 C17            4.8517    -6.3853     2.2396 C.3     
  18 N18            3.5180     3.4237    -0.1131 N.am    
  19 O19            4.6698     1.5397    -0.3465 O.2     
  20 C20            2.1951     4.0353    -0.2613 C.3     
  21 C21            4.6607     4.2301    -0.0702 C.ar    
  22 C22            4.5386     5.6128    -0.1123 C.ar    
  23 C23            5.6684     6.4059    -0.0698 C.ar    
  24 C24            6.9203     5.8247     0.0142 C.ar    
  25 C25            7.0453     4.4481     0.0559 C.ar    
  26 C26            5.9190     3.6496     0.0204 C.ar    
  27 C27            8.1510     6.6931     0.0599 C.3     
  28 F28            8.4592     6.9956     1.3905 F       
  29 F29            9.2244     6.0120    -0.5242 F       
  30 F30            7.9120     7.8781    -0.6444 F       
  31 H31            0.1700     1.4238     2.7584 H       
  32 H32           -0.3239    -0.7518     1.7363 H       
  33 H33            2.9381    -0.2160    -0.9460 H       
  34 H34           -0.0697    -2.1155    -0.3376 H       
  35 H35            1.3867    -1.9480    -1.3472 H       
  36 H36            0.0010    -3.3479     1.7508 H       
  37 H37            1.0959    -5.1352     3.0413 H       
  38 H38            4.5925    -4.7334     0.6171 H       
  39 H39            3.4886    -2.9507    -0.6722 H       
  40 H40            4.8540    -6.7270     1.2046 H       
  41 H41            5.4993    -5.5139     2.3361 H       
  42 H42            5.2172    -7.1830     2.8864 H       
  43 H43            1.7301     4.1374     0.7193 H       
  44 H44            2.2988     5.0193    -0.7185 H       
  45 H45            1.5719     3.4041    -0.8949 H       
  46 H46            3.5612     6.0674    -0.1786 H       
  47 H47            5.5741     7.4813    -0.1026 H       
  48 H48            8.0245     3.9971     0.1208 H       
  49 H49            6.0173     2.5745     0.0534 H       
@<TRIPOS>BOND
   1    1    2 2
   2    1    6 1
   3    1   31 1
   4    2    3 1
   5    2   32 1
   6    3    4 2
   7    3    9 1
   8    4    5 1
   9    4   33 1
  10    5    6 am
  11    5    8 am
  12    6    7 2
  13    8   18 am
  14    8   19 2
  15    9   10 1
  16    9   34 1
  17    9   35 1
  18   10   11 ar
  19   10   15 ar
  20   11   12 ar
  21   11   36 1
  22   12   13 ar
  23   12   37 1
  24   13   14 ar
  25   13   16 1
  26   14   15 ar
  27   14   38 1
  28   15   39 1
  29   16   17 1
  30   17   40 1
  31   17   41 1
  32   17   42 1
  33   18   20 1
  34   18   21 1
  35   20   43 1
  36   20   44 1
  37   20   45 1
  38   21   22 ar
  39   21   26 ar
  40   22   23 ar
  41   22   46 1
  42   23   24 ar
  43   23   47 1
  44   24   25 ar
  45   24   27 1
  46   25   26 ar
  47   25   48 1
  48   26   49 1
  49   27   28 1
  50   27   29 1
  51   27   30 1

#	End of record

