#	Name: ASD02508488
#	Creating user name:	WinNT
#	Creation time:	15. 06. 2019 20:24

#	Modifying user name:	WinNT
#	Modification time:	15. 06. 2019 20:24

#	Program:	/corina/corina34_cracker 3.40 0067  02.08.2006

@<TRIPOS>MOLECULE
ASD02508488
  30   32    0    0    0
SMALL
NO_CHARGES


@<TRIPOS>ATOM
   1 C1             1.1560     1.8301     0.1168 C.2     
   2 C2             2.0238     0.7481     0.3026 C.2     
   3 C3             1.3321    -0.3886     0.0575 C.2     
   4 N4             0.0630    -0.0342    -0.2739 N.pl3   
   5 N5            -0.0169     1.3637    -0.2280 N.2     
   6 C6            -0.9744    -0.9059    -0.6012 C.2     
   7 S7             1.9631    -2.0311     0.1505 S.o2    
   8 N8             2.0541    -2.6098    -1.3985 N.am    
   9 C9             2.9324    -2.0218    -2.3139 C.ar    
  10 C10            3.0169    -0.6386    -2.4065 C.ar    
  11 O11            3.3008    -1.9213     0.6170 O.2     
  12 O12            0.9710    -2.8054     0.8104 O.2     
  13 C13            3.7253    -2.8201    -3.1277 C.ar    
  14 C14            4.5925    -2.2376    -4.0318 C.ar    
  15 C15            4.6718    -0.8591    -4.1271 C.ar    
  16 C16            3.8857    -0.0599    -3.3121 C.ar    
  17 Cl17           3.9872     1.6689    -3.4338 Cl      
  18 N18           -2.2092    -0.5563    -0.7791 N.2     
  19 C19           -3.0634    -1.5130    -1.0855 C.2     
  20 C20           -2.5244    -2.7319    -1.1709 C.2     
  21 S21           -0.8010    -2.5909    -0.8334 S.3     
  22 F22            5.5206    -0.2917    -5.0119 F       
  23 H23            1.4099     2.8724     0.2414 H       
  24 H24            3.0629     0.8096     0.5905 H       
  25 H25            1.4982    -3.3566    -1.6707 H       
  26 H26            2.4041    -0.0160    -1.7716 H       
  27 H27            3.6643    -3.8958    -3.0537 H       
  28 H28            5.2095    -2.8585    -4.6645 H       
  29 H29           -4.1138    -1.3261    -1.2533 H       
  30 H30           -3.0518    -3.6437    -1.4092 H       
@<TRIPOS>BOND
   1    1    2 1
   2    1    5 2
   3    1   23 1
   4    2    3 2
   5    2   24 1
   6    3    4 1
   7    3    7 1
   8    4    5 1
   9    4    6 1
  10    6   18 2
  11    6   21 1
  12    7    8 am
  13    7   11 2
  14    7   12 2
  15    8    9 1
  16    8   25 1
  17    9   13 ar
  18    9   10 ar
  19   10   16 ar
  20   10   26 1
  21   13   14 ar
  22   13   27 1
  23   14   15 ar
  24   14   28 1
  25   15   16 ar
  26   15   22 1
  27   16   17 1
  28   18   19 1
  29   19   20 2
  30   19   29 1
  31   20   21 1
  32   20   30 1

#	End of record

