#	Name: ASD00230002
#	Creating user name:	WinNT
#	Creation time:	15. 06. 2019 18:33

#	Modifying user name:	WinNT
#	Modification time:	15. 06. 2019 18:33

#	Program:	/corina/corina34_cracker 3.40 0067  02.08.2006

@<TRIPOS>MOLECULE
ASD00230002
  26   25    0    0    0
SMALL
NO_CHARGES


@<TRIPOS>ATOM
   1 C1            -0.5029     1.3839     1.2865 C.3     
   2 C2            -0.4437    -0.1038     1.0534 C.2     
   3 O3             0.6057    -0.6918     1.1669 O.2     
   4 O4            -1.5568    -0.7757     0.7196 O.3     
   5 C5            -1.4253    -2.2065     0.5103 C.3     
   6 C6            -2.7882    -2.7951     0.1402 C.3     
   7 N7            -3.1958    -2.2944    -1.1793 N.4     
   8 C8            -2.1482    -2.5979    -2.1633 C.3     
   9 C9            -4.4501    -2.9437    -1.5833 C.3     
  10 C10           -3.3969    -0.8408    -1.1107 C.3     
  11 H11            0.4902     1.7508     1.5459 H       
  12 H12           -0.8482     1.8803     0.3796 H       
  13 H13           -1.1935     1.5966     2.1025 H       
  14 H14           -0.7178    -2.3920    -0.2978 H       
  15 H15           -1.0632    -2.6757     1.4251 H       
  16 H16           -2.7184    -3.8825     0.1105 H       
  17 H17           -3.5265    -2.4986     0.8853 H       
  18 H18           -1.9990    -3.6765    -2.2141 H       
  19 H19           -2.4507    -2.2264    -3.1423 H       
  20 H20           -1.2176    -2.1161    -1.8634 H       
  21 H21           -5.2274    -2.7185    -0.8532 H       
  22 H22           -4.7526    -2.5721    -2.5624 H       
  23 H23           -4.3009    -4.0222    -1.6342 H       
  24 H24           -2.4340    -0.3465    -0.9820 H       
  25 H25           -3.8626    -0.4945    -2.0333 H       
  26 H26           -4.0433    -0.6029    -0.2659 H       
@<TRIPOS>BOND
   1    1    2 1
   2    1   11 1
   3    1   12 1
   4    1   13 1
   5    2    3 2
   6    2    4 1
   7    4    5 1
   8    5    6 1
   9    5   14 1
  10    5   15 1
  11    6    7 1
  12    6   16 1
  13    6   17 1
  14    7    8 1
  15    7    9 1
  16    7   10 1
  17    8   18 1
  18    8   19 1
  19    8   20 1
  20    9   21 1
  21    9   22 1
  22    9   23 1
  23   10   24 1
  24   10   25 1
  25   10   26 1

#	End of record

