#	Name: ASD01813964
#	Creating user name:	WinNT
#	Creation time:	15. 06. 2019 19:31

#	Modifying user name:	WinNT
#	Modification time:	15. 06. 2019 19:31

#	Program:	/corina/corina34_cracker 3.40 0067  02.08.2006

@<TRIPOS>MOLECULE
ASD01813964
  46   50    0    0    0
SMALL
NO_CHARGES


@<TRIPOS>ATOM
   1 C1            -0.0169     1.3922     0.0097 C.ar    
   2 C2             0.0021    -0.0041     0.0020 C.ar    
   3 C3             1.2425    -0.6793    -0.0135 C.ar    
   4 C4             2.4322     0.0460    -0.0218 C.ar    
   5 C5             2.3877     1.4229    -0.0149 C.ar    
   6 C6             1.1697     2.0902     0.0021 C.ar    
   7 C7             1.2279    -2.1497    -0.0207 C.2     
   8 N8            -1.1430    -0.7314     0.0095 N.2     
   9 C9            -1.1247    -2.0297     0.0028 C.2     
  10 N10            0.0203    -2.7608    -0.0121 N.am    
  11 C11           -0.0529    -4.2239    -0.0187 C.3     
  12 F12           -2.4302    -4.6176     1.4342 F       
  13 C13           -1.2688    -4.9060     2.0614 C.ar    
  14 C14           -0.0642    -4.7328     1.3997 C.ar    
  15 C15            1.1302    -5.0262     2.0373 C.ar    
  16 C16           -1.2844    -5.3678     3.3640 C.ar    
  17 C17           -0.0847    -5.6652     4.0103 C.ar    
  18 C18            1.1253    -5.4941     3.3378 C.ar    
  19 C19           -0.0955    -6.1599     5.4058 C.ar    
  20 C20            0.6603    -7.3561     5.7807 C.ar    
  21 C21           -0.8140    -5.4996     6.3825 C.ar    
  22 C22           -0.8333    -5.9534     7.6988 C.ar    
  23 C23           -0.1570    -7.0573     8.1015 C.ar    
  24 C24            0.6125    -7.8012     7.1821 C.ar    
  25 C25            1.4705    -8.2473     5.1121 C.2     
  26 N26            1.8937    -9.1632     5.9957 N.pl3   
  27 N27            1.3616    -8.8865     7.2605 N.2     
  28 C28            2.7775   -10.2888     5.6827 C.3     
  29 O29            2.2616    -2.7923    -0.0344 O.2     
  30 F30            2.3018    -4.8552     1.3866 F       
  31 H31           -0.9579     1.9220     0.0170 H       
  32 H32            3.3822    -0.4675    -0.0333 H       
  33 H33            3.3078     1.9883    -0.0210 H       
  34 H34            1.1533     3.1700     0.0077 H       
  35 H35           -2.0682    -2.5553     0.0093 H       
  36 H36           -0.9649    -4.5398    -0.5253 H       
  37 H37            0.8128    -4.6286    -0.5431 H       
  38 H38           -2.2239    -5.4983     3.8805 H       
  39 H39            2.0569    -5.7232     3.8338 H       
  40 H40           -1.3721    -4.6129     6.1203 H       
  41 H41           -1.4098    -5.4038     8.4282 H       
  42 H42           -0.2041    -7.3672     9.1350 H       
  43 H43            1.7203    -8.2146     4.0619 H       
  44 H44            3.8154    -9.9844     5.8180 H       
  45 H45            2.5537   -11.1225     6.3483 H       
  46 H46            2.6211   -10.5971     4.6490 H       
@<TRIPOS>BOND
   1    1    2 ar
   2    1    6 ar
   3    1   31 1
   4    2    3 ar
   5    2    8 1
   6    3    4 ar
   7    3    7 1
   8    4    5 ar
   9    4   32 1
  10    5    6 ar
  11    5   33 1
  12    6   34 1
  13    7   10 am
  14    7   29 2
  15    8    9 2
  16    9   10 1
  17    9   35 1
  18   10   11 1
  19   11   14 1
  20   11   36 1
  21   11   37 1
  22   12   13 1
  23   13   16 ar
  24   13   14 ar
  25   14   15 ar
  26   15   18 ar
  27   15   30 1
  28   16   17 ar
  29   16   38 1
  30   17   18 ar
  31   17   19 1
  32   18   39 1
  33   19   21 ar
  34   19   20 ar
  35   20   25 2
  36   20   24 ar
  37   21   22 ar
  38   21   40 1
  39   22   23 ar
  40   22   41 1
  41   23   24 ar
  42   23   42 1
  43   24   27 2
  44   25   26 1
  45   25   43 1
  46   26   27 1
  47   26   28 1
  48   28   44 1
  49   28   45 1
  50   28   46 1

#	End of record

