#	Name: ASD05250018
#	Creating user name:	WinNT
#	Creation time:	15. 06. 2019 20:58

#	Modifying user name:	WinNT
#	Modification time:	15. 06. 2019 20:58

#	Program:	/corina/corina34_cracker 3.40 0067  02.08.2006

@<TRIPOS>MOLECULE
ASD05250018
  83   88    0    0    0
SMALL
NO_CHARGES


@<TRIPOS>ATOM
   1 C1            -0.1312     1.7911    -0.1238 C.3     
   2 C2            -0.1086     0.2618    -0.0832 C.3     
   3 C3             0.6242    -0.2704    -1.3163 C.3     
   4 C4             0.6469    -1.7997    -1.2756 C.3     
   5 C5             1.3687    -2.3238    -2.4903 C.ar    
   6 N6             2.6715    -2.5160    -2.4261 N.ar    
   7 C7             3.3459    -2.9766    -3.4738 C.ar    
   8 N8             4.7144    -3.1758    -3.3970 N.pl3   
   9 C9             5.4471    -3.6843    -4.5593 C.3     
  10 C10            6.9115    -3.2453    -4.4733 C.3     
  11 C11            7.6846    -3.8300    -5.6575 C.3     
  12 N12            7.5916    -5.2953    -5.6290 N.3     
  13 C13            6.1986    -5.7415    -5.7579 C.3     
  14 C14            5.3811    -5.2139    -4.5767 C.3     
  15 C15            2.6527    -3.2578    -4.6553 C.ar    
  16 C16            1.2789    -3.0404    -4.6788 C.ar    
  17 N17            0.6788    -2.5808    -3.5805 N.ar    
  18 C18            0.4927    -3.3209    -5.9056 C.2     
  19 O19            1.0484    -3.7438    -6.8998 O.2     
  20 N20           -0.8379    -3.1066    -5.9170 N.am    
  21 C21           -1.5603    -3.2701    -7.0984 C.ar    
  22 C22           -1.0022    -2.9000    -8.3136 C.ar    
  23 C23           -1.7198    -3.0623    -9.4828 C.ar    
  24 C24           -2.9977    -3.5939    -9.4519 C.ar    
  25 C25           -3.5676    -3.9676    -8.2525 C.ar    
  26 C26           -2.8522    -3.8147    -7.0645 C.ar    
  27 C27           -3.4565    -4.2132    -5.7772 C.2     
  28 S28           -2.6106    -4.2383    -4.2363 S.3     
  29 C29           -4.0723    -4.7998    -3.4265 C.ar    
  30 C30           -5.0849    -4.9238    -4.3867 C.ar    
  31 N31           -4.6823    -4.5872    -5.6229 N.2     
  32 C32           -6.3558    -5.3653    -3.9532 C.ar    
  33 C33           -6.5390    -5.6509    -2.6187 C.ar    
  34 C34           -5.4829    -5.5013    -1.7335 C.ar    
  35 N35           -4.3059    -5.0897    -2.1503 N.ar    
  36 C36           -7.8814    -6.1234    -2.1229 C.3     
  37 O37           -7.9386    -7.5497    -2.1890 O.3     
  38 C38           -9.1768    -8.1032    -1.7390 C.3     
  39 C39           -9.4552    -9.4098    -2.4872 C.3     
  40 C40          -10.7509   -10.0288    -1.9582 C.3     
  41 N41          -10.6194   -10.2868    -0.5185 N.3     
  42 C42          -10.3987    -9.0406     0.2262 C.3     
  43 C43           -9.0925    -8.3921    -0.2376 C.3     
  44 H44            0.8910     2.1696    -0.1305 H       
  45 H45           -0.6474     2.1230    -1.0246 H       
  46 H46           -0.6533     2.1702     0.7547 H       
  47 H47            0.4077    -0.0701     0.8177 H       
  48 H48           -1.1307    -0.1166    -0.0765 H       
  49 H49            0.1080     0.0615    -2.2171 H       
  50 H50            1.6464     0.1081    -1.3230 H       
  51 H51            1.1631    -2.1316    -0.3748 H       
  52 H52           -0.3753    -2.1781    -1.2689 H       
  53 H53            5.1878    -2.9786    -2.5736 H       
  54 H54            5.0014    -3.2891    -5.4722 H       
  55 H55            6.9676    -2.1572    -4.5036 H       
  56 H56            7.3456    -3.6069    -3.5411 H       
  57 H57            7.2587    -3.4572    -6.5890 H       
  58 H58            8.7307    -3.5311    -5.5914 H       
  59 H59            8.1714    -5.7084    -6.3440 H       
  60 H60            5.7796    -5.3597    -6.6889 H       
  61 H61            6.1654    -6.8310    -5.7648 H       
  62 H62            5.7911    -5.6064    -3.6461 H       
  63 H63            4.3438    -5.5323    -4.6809 H       
  64 H64            3.1699    -3.6331    -5.5260 H       
  65 H65           -1.2929    -2.8386    -5.1034 H       
  66 H66           -0.0059    -2.4843    -8.3453 H       
  67 H67           -1.2815    -2.7725   -10.4263 H       
  68 H68           -3.5513    -3.7164   -10.3712 H       
  69 H69           -4.5648    -4.3818    -8.2336 H       
  70 H70           -7.1684    -5.4763    -4.6558 H       
  71 H71           -5.6288    -5.7258    -0.6872 H       
  72 H72           -8.0214    -5.8016    -1.0909 H       
  73 H73           -8.6688    -5.6989    -2.7458 H       
  74 H74           -9.9831    -7.3952    -1.9299 H       
  75 H75           -9.5587    -9.2041    -3.5526 H       
  76 H76           -8.6293   -10.1032    -2.3285 H       
  77 H77          -11.5786    -9.3407    -2.1297 H       
  78 H78          -10.9445   -10.9666    -2.4790 H       
  79 H79          -11.4245   -10.7817    -0.1649 H       
  80 H80          -11.2281    -8.3571     0.0444 H       
  81 H81          -10.3366    -9.2606     1.2920 H       
  82 H82           -8.2609    -9.0694    -0.0435 H       
  83 H83           -8.9369    -7.4592     0.3043 H       
@<TRIPOS>BOND
   1    1    2 1
   2    1   44 1
   3    1   45 1
   4    1   46 1
   5    2    3 1
   6    2   47 1
   7    2   48 1
   8    3    4 1
   9    3   49 1
  10    3   50 1
  11    4    5 1
  12    4   51 1
  13    4   52 1
  14    5    6 ar
  15    5   17 ar
  16    6    7 ar
  17    7    8 1
  18    7   15 ar
  19    8    9 1
  20    8   53 1
  21    9   10 1
  22    9   14 1
  23    9   54 1
  24   10   11 1
  25   10   55 1
  26   10   56 1
  27   11   12 1
  28   11   57 1
  29   11   58 1
  30   12   13 1
  31   12   59 1
  32   13   14 1
  33   13   60 1
  34   13   61 1
  35   14   62 1
  36   14   63 1
  37   15   16 ar
  38   15   64 1
  39   16   17 ar
  40   16   18 1
  41   18   19 2
  42   18   20 am
  43   20   21 1
  44   20   65 1
  45   21   22 ar
  46   21   26 ar
  47   22   23 ar
  48   22   66 1
  49   23   24 ar
  50   23   67 1
  51   24   25 ar
  52   24   68 1
  53   25   26 ar
  54   25   69 1
  55   26   27 1
  56   27   28 1
  57   27   31 2
  58   28   29 1
  59   29   30 ar
  60   29   35 ar
  61   30   31 1
  62   30   32 ar
  63   32   33 ar
  64   32   70 1
  65   33   34 ar
  66   33   36 1
  67   34   35 ar
  68   34   71 1
  69   36   37 1
  70   36   72 1
  71   36   73 1
  72   37   38 1
  73   38   39 1
  74   38   43 1
  75   38   74 1
  76   39   40 1
  77   39   75 1
  78   39   76 1
  79   40   41 1
  80   40   77 1
  81   40   78 1
  82   41   42 1
  83   41   79 1
  84   42   43 1
  85   42   80 1
  86   42   81 1
  87   43   82 1
  88   43   83 1

#	End of record

