#	Name: ASD01916113
#	Creating user name:	WinNT
#	Creation time:	15. 06. 2019 20:06

#	Modifying user name:	WinNT
#	Modification time:	15. 06. 2019 20:06

#	Program:	/corina/corina34_cracker 3.40 0067  02.08.2006

@<TRIPOS>MOLECULE
ASD01916113
  41   43    0    0    0
SMALL
NO_CHARGES


@<TRIPOS>ATOM
   1 C1            -0.0170     1.3993     0.0094 C.ar    
   2 C2             0.0022    -0.0041     0.0136 C.ar    
   3 C3            -1.2031    -0.6758     0.0210 C.ar    
   4 C4            -2.3890     0.0536     0.0242 C.ar    
   5 N5            -3.6081    -0.6190     0.0317 N.am    
   6 C6             1.2068     2.1429     0.0012 C.1     
   7 C7             2.2101     2.7525    -0.0056 C.1     
   8 C8             3.4339     3.4961    -0.0139 C.ar    
   9 C9             3.4254     4.8982    -0.0181 C.ar    
  10 C10            4.6268     5.5737    -0.0261 C.ar    
  11 N11           -2.3743     1.3779     0.0206 N.ar    
  12 C12           -1.2476     2.0595     0.0076 C.ar    
  13 C13            4.6740     2.8429    -0.0122 C.ar    
  14 N14            5.7732     4.9195    -0.0302 N.ar    
  15 N15           -3.7212    -1.9740    -0.0678 N.3     
  16 C16           -5.0677    -2.3543     0.4188 C.3     
  17 C17           -5.8800    -1.0646     0.1487 C.3     
  18 C18           -4.7979     0.0000     0.1437 C.2     
  19 C19            5.8279     3.5998    -0.0204 C.ar    
  20 O20           -4.9747     1.1974     0.2197 O.2     
  21 C21           -5.6270    -3.5310    -0.3832 C.3     
  22 C22           -3.5168    -2.4191    -1.4527 C.3     
  23 C23           -5.0377    -2.6789     1.9137 C.3     
  24 Cl24           7.3722     2.8068    -0.0184 Cl      
  25 H25            0.9370    -0.5448     0.0106 H       
  26 H26           -1.2263    -1.7556     0.0241 H       
  27 H27            2.4915     5.4407    -0.0154 H       
  28 H28            4.6303     6.6537    -0.0294 H       
  29 H29           -1.2754     3.1391     0.0051 H       
  30 H30            4.7257     1.7642    -0.0042 H       
  31 H31           -6.3820    -1.1174    -0.8173 H       
  32 H32           -6.5961    -0.8821     0.9500 H       
  33 H33           -4.9627    -4.3891    -0.2807 H       
  34 H34           -6.6163    -3.7904    -0.0060 H       
  35 H35           -5.7006    -3.2520    -1.4343 H       
  36 H36           -2.5218    -2.1242    -1.7860 H       
  37 H37           -3.6102    -3.5039    -1.5033 H       
  38 H38           -4.2667    -1.9594    -2.0965 H       
  39 H39           -4.6992    -1.8040     2.4687 H       
  40 H40           -6.0385    -2.9549     2.2457 H       
  41 H41           -4.3540    -3.5089     2.0916 H       
@<TRIPOS>BOND
   1    1    2 ar
   2    1    6 1
   3    1   12 ar
   4    2    3 ar
   5    2   25 1
   6    3    4 ar
   7    3   26 1
   8    4   11 ar
   9    4    5 1
  10    5   15 1
  11    5   18 am
  12    6    7 3
  13    7    8 1
  14    8    9 ar
  15    8   13 ar
  16    9   10 ar
  17    9   27 1
  18   10   14 ar
  19   10   28 1
  20   11   12 ar
  21   12   29 1
  22   13   19 ar
  23   13   30 1
  24   14   19 ar
  25   15   16 1
  26   15   22 1
  27   16   17 1
  28   16   23 1
  29   16   21 1
  30   17   18 1
  31   17   31 1
  32   17   32 1
  33   18   20 2
  34   19   24 1
  35   21   33 1
  36   21   34 1
  37   21   35 1
  38   22   36 1
  39   22   37 1
  40   22   38 1
  41   23   39 1
  42   23   40 1
  43   23   41 1

#	End of record

