#	Name: ASD01410445
#	Creating user name:	WinNT
#	Creation time:	15. 06. 2019 19:17

#	Modifying user name:	WinNT
#	Modification time:	15. 06. 2019 19:17

#	Program:	/corina/corina34_cracker 3.40 0067  02.08.2006

@<TRIPOS>MOLECULE
ASD01410445
  73   76    0    0    0
SMALL
NO_CHARGES


@<TRIPOS>ATOM
   1 C1             5.7502     7.2366    -0.9755 C.ar    
   2 C2             6.2705     6.8250    -2.1946 C.ar    
   3 C3             6.7560     5.5385    -2.3222 C.ar    
   4 N4             6.7299     4.7016    -1.3027 N.ar    
   5 C5             6.2420     5.0569    -0.1253 C.ar    
   6 C6             5.7372     6.3354     0.0749 C.ar    
   7 C7             6.3048     7.7716    -3.3667 C.3     
   8 C8             7.6244     8.5460    -3.3584 C.3     
   9 N9             7.6577     9.4663    -4.4977 N.pl3   
  10 N10            7.2287    10.6783    -4.4707 N.2     
  11 C11            7.4090    11.2159    -5.6559 C.2     
  12 C12            7.9972    10.2219    -6.4414 C.2     
  13 N13            8.1251     9.1739    -5.6596 N.2     
  14 C14            5.1825     6.7357     1.4177 C.3     
  15 F15            4.7403     8.0618     1.3630 F       
  16 F16            4.1102     5.8997     1.7473 F       
  17 F17            6.1820     6.6171     2.3893 F       
  18 F18            8.9114     3.5644     0.7957 F       
  19 C19            7.9964     2.5929     0.5856 C.ar    
  20 C20            6.6408     2.8925     0.6355 C.ar    
  21 O21            6.2346     4.1641     0.8961 O.3     
  22 C22            8.4089     1.3012     0.3150 C.ar    
  23 C23            7.4677     0.3037     0.0988 C.ar    
  24 C24            6.1131     0.6038     0.1543 C.ar    
  25 C25            5.7016     1.8953     0.4193 C.ar    
  26 N26            7.8846    -1.0051    -0.1758 N.am    
  27 C27            9.1906    -1.2674    -0.3805 C.2     
  28 C28            6.9009    -2.0888    -0.2405 C.3     
  29 C29            5.9761    -1.8673    -1.4391 C.3     
  30 C30            6.0734    -2.1039     1.0463 C.3     
  31 O31           10.0155    -0.3902    -0.2346 O.2     
  32 C32            9.6261    -2.6506    -0.7907 C.3     
  33 C33           11.0653    -2.5999    -1.3075 C.3     
  34 C34           11.5075    -4.0041    -1.7239 C.3     
  35 C35           11.4316    -4.9416    -0.5171 C.3     
  36 C36            9.9924    -4.9923    -0.0004 C.3     
  37 C37            9.5503    -3.5880     0.4161 C.3     
  38 C38           11.8738    -6.3459    -0.9336 C.3     
  39 O39            6.7251    -1.9974    -2.6491 O.3     
  40 C40            5.9509    -1.8078    -3.8351 C.3     
  41 H41            5.3682     8.2388    -0.8482 H       
  42 H42            7.1620     5.2132    -3.2687 H       
  43 H43            6.2220     7.2049    -4.2940 H       
  44 H44            5.4724     8.4715    -3.2930 H       
  45 H45            7.7072     9.1128    -2.4310 H       
  46 H46            8.4568     7.8462    -3.4321 H       
  47 H47            7.1543    12.2203    -5.9604 H       
  48 H48            8.2908    10.3004    -7.4778 H       
  49 H49            9.4626     1.0684     0.2716 H       
  50 H50            5.3810    -0.1721    -0.0143 H       
  51 H51            4.6478     2.1279     0.4623 H       
  52 H52            7.4175    -3.0422    -0.3514 H       
  53 H53            5.1780    -2.6095    -1.4242 H       
  54 H54            5.5441    -0.8681    -1.3848 H       
  55 H55            5.4846    -1.1888     1.1104 H       
  56 H56            5.4059    -2.9656     1.0390 H       
  57 H57            6.7400    -2.1680     1.9063 H       
  58 H58            8.9698    -3.0193    -1.5790 H       
  59 H59           11.1194    -1.9320    -2.1672 H       
  60 H60           11.7216    -2.2312    -0.5191 H       
  61 H61           10.8512    -4.3729    -2.5122 H       
  62 H62           12.5328    -3.9680    -2.0920 H       
  63 H63           12.0879    -4.5729     0.2712 H       
  64 H64            9.3361    -5.3610    -0.7887 H       
  65 H65            9.9384    -5.6601     0.8594 H       
  66 H66           10.2066    -3.2193     1.2044 H       
  67 H67            8.5250    -3.6242     0.7842 H       
  68 H68           12.8991    -6.3097    -1.3017 H       
  69 H69           11.8197    -7.0137    -0.0738 H       
  70 H70           11.2175    -6.7146    -1.7219 H       
  71 H71            5.5183    -0.8073    -3.8306 H       
  72 H72            6.5915    -1.9227    -4.7094 H       
  73 H73            5.1522    -2.5488    -3.8700 H       
@<TRIPOS>BOND
   1    1    2 ar
   2    1    6 ar
   3    1   41 1
   4    2    3 ar
   5    2    7 1
   6    3    4 ar
   7    3   42 1
   8    4    5 ar
   9    5    6 ar
  10    5   21 1
  11    6   14 1
  12    7    8 1
  13    7   43 1
  14    7   44 1
  15    8    9 1
  16    8   45 1
  17    8   46 1
  18    9   10 1
  19    9   13 1
  20   10   11 2
  21   11   12 1
  22   11   47 1
  23   12   13 2
  24   12   48 1
  25   14   15 1
  26   14   16 1
  27   14   17 1
  28   18   19 1
  29   19   20 ar
  30   19   22 ar
  31   20   21 1
  32   20   25 ar
  33   22   23 ar
  34   22   49 1
  35   23   24 ar
  36   23   26 1
  37   24   25 ar
  38   24   50 1
  39   25   51 1
  40   26   27 am
  41   26   28 1
  42   27   31 2
  43   27   32 1
  44   28   29 1
  45   28   30 1
  46   28   52 1
  47   29   39 1
  48   29   53 1
  49   29   54 1
  50   30   55 1
  51   30   56 1
  52   30   57 1
  53   32   33 1
  54   32   37 1
  55   32   58 1
  56   33   34 1
  57   33   59 1
  58   33   60 1
  59   34   35 1
  60   34   61 1
  61   34   62 1
  62   35   36 1
  63   35   38 1
  64   35   63 1
  65   36   37 1
  66   36   64 1
  67   36   65 1
  68   37   66 1
  69   37   67 1
  70   38   68 1
  71   38   69 1
  72   38   70 1
  73   39   40 1
  74   40   71 1
  75   40   72 1
  76   40   73 1

#	End of record

