#	Name: ASD01152199
#	Creating user name:	WinNT
#	Creation time:	15. 06. 2019 19:05

#	Modifying user name:	WinNT
#	Modification time:	15. 06. 2019 19:05

#	Program:	/corina/corina34_cracker 3.40 0067  02.08.2006

@<TRIPOS>MOLECULE
ASD01152199
  23   23    0    0    0
SMALL
NO_CHARGES


@<TRIPOS>ATOM
   1 C1            -0.0184     1.5028     0.0103 C.2     
   2 C2             0.0021    -0.0041     0.0020 C.3     
   3 O3             1.0236     2.1234     0.0037 O.2     
   4 N4            -1.1946     2.1607     0.0195 N.am    
   5 C5             1.3964    -0.4758    -0.0138 C.1     
   6 N6             2.4724    -0.8398    -0.0261 N.1     
   7 C7            -1.2145     3.6256     0.0275 C.3     
   8 C8            -2.6419     4.1085     0.0369 C.ar    
   9 C9            -3.2907     4.3235     1.2386 C.ar    
  10 C10           -4.5999     4.7664     1.2478 C.ar    
  11 C11           -5.2611     4.9947     0.0541 C.ar    
  12 C12           -4.6113     4.7794    -1.1481 C.ar    
  13 C13           -3.3002     4.3419    -1.1561 C.ar    
  14 Cl14          -6.9057     5.5505     0.0650 Cl      
  15 H15           -0.4983    -0.3791     0.8948 H       
  16 H16           -0.5153    -0.3696    -0.8850 H       
  17 H17           -2.0280     1.6644     0.0207 H       
  18 H18           -0.7014     3.9910     0.9171 H       
  19 H19           -0.7098     4.0007    -0.8628 H       
  20 H20           -2.7746     4.1449     2.1703 H       
  21 H21           -5.1068     4.9339     2.1866 H       
  22 H22           -5.1269     4.9575    -2.0802 H       
  23 H23           -2.7914     4.1780    -2.0945 H       
@<TRIPOS>BOND
   1    1    2 1
   2    1    3 2
   3    1    4 am
   4    2    5 1
   5    2   15 1
   6    2   16 1
   7    4    7 1
   8    4   17 1
   9    5    6 3
  10    7    8 1
  11    7   18 1
  12    7   19 1
  13    8    9 ar
  14    8   13 ar
  15    9   10 ar
  16    9   20 1
  17   10   11 ar
  18   10   21 1
  19   11   12 ar
  20   11   14 1
  21   12   13 ar
  22   12   22 1
  23   13   23 1

#	End of record

