#	Name: ASD01120105
#	Creating user name:	WinNT
#	Creation time:	15. 06. 2019 18:59

#	Modifying user name:	WinNT
#	Modification time:	15. 06. 2019 18:59

#	Program:	/corina/corina34_cracker 3.40 0067  02.08.2006

@<TRIPOS>MOLECULE
ASD01120105
  35   37    0    0    0
SMALL
NO_CHARGES


@<TRIPOS>ATOM
   1 C1            -0.0175     1.2677    -0.6935 C.ar    
   2 C2             1.0894     1.6110    -1.4475 C.ar    
   3 C3             2.2975     0.9772    -1.2318 C.ar    
   4 C4             2.3997    -0.0060    -0.2561 C.ar    
   5 C5             1.2853    -0.3486     0.4998 C.ar    
   6 C6             0.0807     0.2890     0.2790 C.ar    
   7 N7             3.6204    -0.6497    -0.0355 N.pl3   
   8 C8             4.8072     0.0578    -0.1476 C.2     
   9 N9             5.9958    -0.4573    -0.0799 N.2     
  10 C10            7.0231     0.3804    -0.2101 C.2     
  11 C11            6.6926     1.6698    -0.3975 C.2     
  12 S12            4.9351     1.7941    -0.4116 S.3     
  13 C13            8.4326    -0.0773    -0.1520 C.ar    
  14 C14            8.7225    -1.4265     0.0445 C.ar    
  15 C15           10.0360    -1.8465     0.0978 C.ar    
  16 C16           11.0639    -0.9316    -0.0432 C.ar    
  17 C17           10.7821     0.4086    -0.2384 C.ar    
  18 C18            9.4724     0.8393    -0.2992 C.ar    
  19 S19            0.9586     2.8581    -2.6854 S.o2    
  20 O20            2.0042     2.6115    -3.6155 O.2     
  21 O21           -0.4125     2.9149    -3.0544 O.2     
  22 N22            1.3084     4.3059    -1.9616 N.am    
  23 H23           -0.9599     1.7680    -0.8611 H       
  24 H24            3.1617     1.2456    -1.8214 H       
  25 H25            1.3612    -1.1129     1.2591 H       
  26 H26           -0.7859     0.0233     0.8662 H       
  27 H27            3.6372    -1.5915     0.1961 H       
  28 H28            7.3856     2.4887    -0.5224 H       
  29 H29            7.9208    -2.1416     0.1550 H       
  30 H30           10.2618    -2.8916     0.2503 H       
  31 H31           12.0903    -1.2648    -0.0005 H       
  32 H32           11.5885     1.1186    -0.3478 H       
  33 H33            9.2535     1.8859    -0.4519 H       
  34 H34            1.7128     5.0208    -2.4776 H       
  35 H35            1.1089     4.4389    -1.0217 H       
@<TRIPOS>BOND
   1    1    2 ar
   2    1    6 ar
   3    1   23 1
   4    2    3 ar
   5    2   19 1
   6    3    4 ar
   7    3   24 1
   8    4    5 ar
   9    4    7 1
  10    5    6 ar
  11    5   25 1
  12    6   26 1
  13    7    8 1
  14    7   27 1
  15    8    9 2
  16    8   12 1
  17    9   10 1
  18   10   11 2
  19   10   13 1
  20   11   12 1
  21   11   28 1
  22   13   14 ar
  23   13   18 ar
  24   14   15 ar
  25   14   29 1
  26   15   16 ar
  27   15   30 1
  28   16   17 ar
  29   16   31 1
  30   17   18 ar
  31   17   32 1
  32   18   33 1
  33   19   20 2
  34   19   21 2
  35   19   22 am
  36   22   34 1
  37   22   35 1

#	End of record

