#	Name: ASD01814607
#	Creating user name:	WinNT
#	Creation time:	15. 06. 2019 19:32

#	Modifying user name:	WinNT
#	Modification time:	15. 06. 2019 19:32

#	Program:	/corina/corina34_cracker 3.40 0067  02.08.2006

@<TRIPOS>MOLECULE
ASD01814607
  50   54    0    0    0
SMALL
NO_CHARGES


@<TRIPOS>ATOM
   1 N1             0.0194     1.3254    -0.5364 N.2     
   2 C2             0.0434     0.0239    -0.7015 C.2     
   3 C3             1.2624    -0.6411    -0.9041 C.2     
   4 C4             2.4151     0.0730    -0.9278 C.2     
   5 N5             2.3617     1.4266    -0.7533 N.pl3   
   6 C6             1.1517     2.0409    -0.5579 C.2     
   7 N7             3.3491     2.4167    -0.7255 N.2     
   8 C8             2.7756     3.5857    -0.5226 C.2     
   9 C9             1.4078     3.3993    -0.4131 C.2     
  10 C10            3.0773     5.0560    -0.3680 C.3     
  11 N11            1.8049     5.7531    -0.1565 N.am    
  12 C12            0.7497     4.7351    -0.1812 C.3     
  13 C13            1.6370     7.0778     0.0261 C.2     
  14 C14            2.8119     7.9622     0.1313 C.ar    
  15 C15            3.8634     7.8459    -0.7816 C.ar    
  16 C16            2.8787     8.9301     1.1454 C.ar    
  17 C17            3.9913     9.7579     1.2335 C.ar    
  18 C18            5.0233     9.6273     0.3274 C.ar    
  19 C19            4.9582     8.6755    -0.6782 C.ar    
  20 O20            0.5164     7.5436     0.1041 O.2     
  21 C21           -1.2433    -0.7600    -0.6729 C.3     
  22 Cl22           1.2947    -2.3630    -1.1220 Cl      
  23 C23            3.7371    -0.6177    -1.1432 C.3     
  24 N24            1.8380     9.0602     2.0558 N.3     
  25 C25            2.3099     8.8316     3.4339 C.3     
  26 C26            1.9579    10.0915     4.2525 C.3     
  27 C27            0.8033    10.7282     3.4350 C.3     
  28 C28            1.2350    10.4081     1.9822 C.3     
  29 H29            3.7305     5.2108     0.4908 H       
  30 H30            3.5583     5.4314    -1.2713 H       
  31 H31            0.0498     4.9475    -0.9893 H       
  32 H32            0.2225     4.7267     0.7728 H       
  33 H33            3.8180     7.1062    -1.5671 H       
  34 H34            4.0480    10.5044     2.0119 H       
  35 H35            5.8857    10.2734     0.3995 H       
  36 H36            5.7699     8.5842    -1.3847 H       
  37 H37           -2.0791    -0.0806    -0.5057 H       
  38 H38           -1.3773    -1.2733    -1.6251 H       
  39 H39           -1.2043    -1.4931     0.1328 H       
  40 H40            3.5725    -1.6888    -1.2607 H       
  41 H41            4.2115    -0.2224    -2.0414 H       
  42 H42            4.3834    -0.4416    -0.2834 H       
  43 H43            1.8084     7.9617     3.8580 H       
  44 H44            3.3890     8.6778     3.4356 H       
  45 H45            1.6181     9.8193     5.2518 H       
  46 H46            2.8112    10.7677     4.3054 H       
  47 H47           -0.1499    10.2557     3.6722 H       
  48 H48            0.7555    11.8046     3.5999 H       
  49 H49            1.9704    11.1344     1.6360 H       
  50 H50            0.3680    10.4004     1.3216 H       
@<TRIPOS>BOND
   1    1    2 2
   2    1    6 1
   3    2    3 1
   4    2   21 1
   5    3    4 2
   6    3   22 1
   7    4    5 1
   8    4   23 1
   9    5    7 1
  10    5    6 1
  11    6    9 2
  12    7    8 2
  13    8   10 1
  14    8    9 1
  15    9   12 1
  16   10   11 1
  17   10   29 1
  18   10   30 1
  19   11   12 1
  20   11   13 am
  21   12   31 1
  22   12   32 1
  23   13   14 1
  24   13   20 2
  25   14   16 ar
  26   14   15 ar
  27   15   19 ar
  28   15   33 1
  29   16   17 ar
  30   16   24 1
  31   17   18 ar
  32   17   34 1
  33   18   19 ar
  34   18   35 1
  35   19   36 1
  36   21   37 1
  37   21   38 1
  38   21   39 1
  39   23   40 1
  40   23   41 1
  41   23   42 1
  42   24   25 1
  43   24   28 1
  44   25   26 1
  45   25   43 1
  46   25   44 1
  47   26   27 1
  48   26   45 1
  49   26   46 1
  50   27   28 1
  51   27   47 1
  52   27   48 1
  53   28   49 1
  54   28   50 1

#	End of record

