#	Name: ASD03430553
#	Creating user name:	WinNT
#	Creation time:	15. 06. 2019 20:41

#	Modifying user name:	WinNT
#	Modification time:	15. 06. 2019 20:41

#	Program:	/corina/corina34_cracker 3.40 0067  02.08.2006

@<TRIPOS>MOLECULE
ASD03430553
  56   61    0    0    0
SMALL
NO_CHARGES


@<TRIPOS>ATOM
   1 N1            -0.0157     1.3067     0.0092 N.ar    
   2 C2             0.0021    -0.0041     0.0020 C.ar    
   3 C3             1.1968    -0.7209    -0.0128 C.ar    
   4 C4             2.3901    -0.0571    -0.0206 C.ar    
   5 C5             2.3680     1.3511    -0.0133 C.ar    
   6 C6             3.5481     2.1018    -0.0210 C.ar    
   7 C7             3.5003     3.4790    -0.0140 C.ar    
   8 C8             2.2527     4.1270     0.0009 C.ar    
   9 C9             1.0923     3.4228     0.0087 C.ar    
  10 C10            1.1159     2.0174     0.0022 C.ar    
  11 N11            4.7926     4.0081    -0.0243 N.am    
  12 C12            5.0104     1.7210    -0.0373 C.3     
  13 C13            5.7349     3.0505    -0.0382 C.2     
  14 O14            6.9359     3.2188    -0.0496 O.2     
  15 C15            5.0871     5.4432    -0.0212 C.3     
  16 C16            5.2018     5.9294     1.4006 C.ar    
  17 C17            6.4279     5.9112     2.0394 C.ar    
  18 C18            6.5357     6.3563     3.3427 C.ar    
  19 C19            5.4124     6.8219     4.0106 C.ar    
  20 C20            4.1833     6.8391     3.3674 C.ar    
  21 C21            4.0818     6.3982     2.0621 C.ar    
  22 O22            5.5157     7.2599     5.2929 O.3     
  23 C23            4.3179     7.7252     5.9180 C.3     
  24 O24            6.3750    -1.4245     4.4373 O.3     
  25 C25            7.2121    -2.4404     3.8596 C.3     
  26 C26            6.7377    -2.4797     2.3876 C.3     
  27 C27            6.1798    -1.0817     2.2012 C.ar    
  28 C28            6.0084    -0.5400     3.4695 C.ar    
  29 C29            5.5147     0.7557     3.5870 C.ar    
  30 C30            5.1943     1.4843     2.4540 C.ar    
  31 C31            5.3635     0.9277     1.1944 C.ar    
  32 C32            5.8573    -0.3585     1.0741 C.ar    
  33 O33            4.7119     2.7489     2.5762 O.3     
  34 O34            5.3220     0.9798    -1.2186 O.3     
  35 H35           -0.9341    -0.5426     0.0081 H       
  36 H36            1.1791    -1.8007    -0.0177 H       
  37 H37            3.3253    -0.5971    -0.0317 H       
  38 H38            2.2170     5.2064     0.0067 H       
  39 H39            0.1468     3.9446     0.0201 H       
  40 H40            6.0270     5.6223    -0.5434 H       
  41 H41            4.2834     5.9801    -0.5251 H       
  42 H42            7.3020     5.5483     1.5191 H       
  43 H43            7.4935     6.3416     3.8414 H       
  44 H44            3.3073     7.2010     3.8852 H       
  45 H45            3.1262     6.4158     1.5594 H       
  46 H46            3.9161     8.5661     5.3528 H       
  47 H47            3.5840     6.9196     5.9420 H       
  48 H48            4.5400     8.0448     6.9362 H       
  49 H49            8.2625    -2.1551     3.9192 H       
  50 H50            7.0438    -3.4016     4.3453 H       
  51 H51            7.5750    -2.6581     1.7130 H       
  52 H52            5.9604    -3.2310     2.2488 H       
  53 H53            5.3811     1.1944     4.5648 H       
  54 H54            5.9908    -0.7960     0.0957 H       
  55 H55            5.3962     3.4321     2.5826 H       
  56 H56            6.2485     0.7097    -1.2805 H       
@<TRIPOS>BOND
   1    1    2 ar
   2    1   10 ar
   3    2    3 ar
   4    2   35 1
   5    3    4 ar
   6    3   36 1
   7    4    5 ar
   8    4   37 1
   9    5    6 ar
  10    5   10 ar
  11    6    7 ar
  12    6   12 1
  13    7    8 ar
  14    7   11 1
  15    8    9 ar
  16    8   38 1
  17    9   10 ar
  18    9   39 1
  19   11   13 am
  20   11   15 1
  21   12   13 1
  22   12   31 1
  23   12   34 1
  24   13   14 2
  25   15   16 1
  26   15   40 1
  27   15   41 1
  28   16   17 ar
  29   16   21 ar
  30   17   18 ar
  31   17   42 1
  32   18   19 ar
  33   18   43 1
  34   19   20 ar
  35   19   22 1
  36   20   21 ar
  37   20   44 1
  38   21   45 1
  39   22   23 1
  40   23   46 1
  41   23   47 1
  42   23   48 1
  43   24   25 1
  44   24   28 1
  45   25   26 1
  46   25   49 1
  47   25   50 1
  48   26   27 1
  49   26   51 1
  50   26   52 1
  51   27   28 ar
  52   27   32 ar
  53   28   29 ar
  54   29   30 ar
  55   29   53 1
  56   30   31 ar
  57   30   33 1
  58   31   32 ar
  59   32   54 1
  60   33   55 1
  61   34   56 1

#	End of record

