#	Name: ASD05740083
#	Creating user name:	WinNT
#	Creation time:	15. 06. 2019 21:02

#	Modifying user name:	WinNT
#	Modification time:	15. 06. 2019 21:02

#	Program:	/corina/corina34_cracker 3.40 0067  02.08.2006

@<TRIPOS>MOLECULE
ASD05740083
  44   47    0    0    0
SMALL
NO_CHARGES


@<TRIPOS>ATOM
   1 C1            -0.0216     1.4955     0.0224 C.3     
   2 N2            -5.0042     4.0444    -3.9660 N.am    
   3 C3            -2.6410     1.3197    -2.1530 C.ar    
   4 C4             1.2419    -0.7097    -0.0487 C.2     
   5 C5             1.2268    -2.0926    -0.0935 C.2     
   6 C6             0.0008    -0.0105    -0.0269 C.2     
   7 C7            -1.1623    -0.7121    -0.0504 C.2     
   8 C8            -1.1246    -2.1151    -0.0959 C.2     
   9 O9             0.0493    -2.7619    -0.1161 O.3     
  10 C10           -2.4845     0.0106    -0.0274 C.3     
  11 C11           -2.9839     0.1893    -1.4379 C.ar    
  12 C12           -3.7857    -0.7790    -2.0147 C.ar    
  13 O13           -2.1661    -2.7490    -0.1167 O.2     
  14 C14           -3.1019     1.4836    -3.4533 C.ar    
  15 C15           -3.9061     0.5088    -4.0298 C.ar    
  16 C16           -4.2457    -0.6192    -3.3087 C.ar    
  17 N17           -2.7569     2.6258    -4.1795 N.am    
  18 S18           -3.9112     3.4336    -5.0498 S.o2    
  19 O19           -4.6036     2.4507    -5.8073 O.2     
  20 O20           -3.2609     4.5520    -5.6376 O.2     
  21 S21            2.8763    -2.7070    -0.1117 S.3     
  22 C22            3.5512    -1.0901    -0.0586 C.2     
  23 C23            2.5953    -0.1751    -0.0245 C.2     
  24 O24            4.8808    -0.8127    -0.0482 O.3     
  25 C25            5.7469    -1.8516     0.0368 C.2     
  26 N26            7.0353    -1.7527    -0.0539 N.2     
  27 S27            5.2984    -3.4823     0.2868 S.3     
  28 C28            6.9920    -3.9655     0.2443 C.2     
  29 C29            7.7297    -2.8707     0.0527 C.2     
  30 H30            1.0005     1.8739     0.0357 H       
  31 H31           -0.5400     1.8801    -0.8559 H       
  32 H32           -0.5416     1.8218     0.9231 H       
  33 H33           -4.8831     3.8904    -3.0160 H       
  34 H34           -5.7654     4.5563    -4.2812 H       
  35 H35           -2.0189     2.0776    -1.7004 H       
  36 H36           -3.2075    -0.5726     0.5429 H       
  37 H37           -2.3566     0.9874     0.4392 H       
  38 H38           -4.0527    -1.6620    -1.4531 H       
  39 H39           -4.2655     0.6328    -5.0407 H       
  40 H40           -4.8710    -1.3776    -3.7563 H       
  41 H41           -1.8413     2.9458    -4.1739 H       
  42 H42            2.8031     0.8841     0.0110 H       
  43 H43            7.3676    -4.9718     0.3573 H       
  44 H44            8.8075    -2.8970    -0.0123 H       
@<TRIPOS>BOND
   1    1    6 1
   2    1   30 1
   3    1   31 1
   4    1   32 1
   5    2   18 am
   6    2   33 1
   7    2   34 1
   8    3   11 ar
   9    3   14 ar
  10    3   35 1
  11    4    5 2
  12    4    6 1
  13    4   23 1
  14    5   21 1
  15    5    9 1
  16    6    7 2
  17    7    8 1
  18    7   10 1
  19    8    9 1
  20    8   13 2
  21   10   11 1
  22   10   36 1
  23   10   37 1
  24   11   12 ar
  25   12   16 ar
  26   12   38 1
  27   14   15 ar
  28   14   17 1
  29   15   16 ar
  30   15   39 1
  31   16   40 1
  32   17   18 am
  33   17   41 1
  34   18   19 2
  35   18   20 2
  36   21   22 1
  37   22   23 2
  38   22   24 1
  39   23   42 1
  40   24   25 1
  41   25   26 2
  42   25   27 1
  43   26   29 1
  44   27   28 1
  45   28   29 2
  46   28   43 1
  47   29   44 1

#	End of record

