#	Name: ASD01948242
#	Creating user name:	WinNT
#	Creation time:	15. 06. 2019 20:14

#	Modifying user name:	WinNT
#	Modification time:	15. 06. 2019 20:14

#	Program:	/corina/corina34_cracker 3.40 0067  02.08.2006

@<TRIPOS>MOLECULE
ASD01948242
  28   31    0    0    0
SMALL
NO_CHARGES


@<TRIPOS>ATOM
   1 C1            -0.0167     1.3794     0.0096 C.ar    
   2 C2             0.0021    -0.0041     0.0020 C.ar    
   3 C3             1.2073    -0.6821    -0.0131 C.ar    
   4 C4             2.3974     0.0199    -0.0202 C.ar    
   5 C5             2.3837     1.4074    -0.0126 C.ar    
   6 C6             1.1707     2.0877     0.0021 C.ar    
   7 C7             4.0371     2.4133    -2.5207 C.ar    
   8 C8             4.2826     2.5442    -1.1552 C.ar    
   9 N9             3.5899     2.1219    -0.0194 N.am    
  10 C10            4.9173     2.9444    -3.4390 C.ar    
  11 C11            6.0632     3.6185    -3.0006 C.ar    
  12 C12            6.3123     3.7520    -1.6281 C.ar    
  13 C13            5.4193     3.2128    -0.7078 C.ar    
  14 N14            5.3859     3.1783     0.6867 N.am    
  15 C15            4.2770     2.5175     1.0684 C.2     
  16 O16            3.9463     2.3094     2.2211 O.2     
  17 I17           -1.7991    -1.0739     0.0141 I       
  18 F18            4.6745     2.8141    -4.7616 F       
  19 F19            1.1528     3.4386     0.0091 F       
  20 F20            2.9348     1.7583    -2.9462 F       
  21 O21            7.4724     4.4379    -1.5191 O.3     
  22 C22            7.9140     4.7121    -2.7569 C.2     
  23 N23            7.0928     4.2353    -3.6429 N.2     
  24 H24           -0.9594     1.9063     0.0169 H       
  25 H25            1.2183    -1.7621    -0.0190 H       
  26 H26            3.3379    -0.5111    -0.0313 H       
  27 H27            6.0487     3.5650     1.2801 H       
  28 H28            8.8216     5.2519    -2.9833 H       
@<TRIPOS>BOND
   1    1    2 ar
   2    1    6 ar
   3    1   24 1
   4    2    3 ar
   5    2   17 1
   6    3    4 ar
   7    3   25 1
   8    4    5 ar
   9    4   26 1
  10    5    6 ar
  11    5    9 1
  12    6   19 1
  13    7    8 ar
  14    7   10 ar
  15    7   20 1
  16    8    9 1
  17    8   13 ar
  18    9   15 am
  19   10   11 ar
  20   10   18 1
  21   11   12 ar
  22   11   23 1
  23   12   13 ar
  24   12   21 1
  25   13   14 1
  26   14   15 am
  27   14   27 1
  28   15   16 2
  29   21   22 1
  30   22   23 2
  31   22   28 1

#	End of record

