#	Name: ASD04590719
#	Creating user name:	WinNT
#	Creation time:	15. 06. 2019 20:51

#	Modifying user name:	WinNT
#	Modification time:	15. 06. 2019 20:51

#	Program:	/corina/corina34_cracker 3.40 0067  02.08.2006

@<TRIPOS>MOLECULE
ASD04590719
  60   65    0    0    0
SMALL
NO_CHARGES


@<TRIPOS>ATOM
   1 N1            -0.0171     1.3231    -0.0119 N.ar    
   2 C2             0.0017    -0.0035    -0.0051 C.ar    
   3 N3             1.1300    -0.6949    -0.0118 N.ar    
   4 C4             2.3050    -0.0730    -0.0262 C.ar    
   5 C5             2.3188     1.3363    -0.0341 C.ar    
   6 C6             1.1074     2.0200    -0.0262 C.ar    
   7 N7             3.6037    -0.5199    -0.0358 N.pl3   
   8 C8             4.4843     0.5463    -0.0499 C.ar    
   9 C9             3.7314     1.7364    -0.0495 C.ar    
  10 N10           -1.2019    -0.6888     0.0098 N.pl3   
  11 C11           -2.4019     0.0119     0.1303 C.ar    
  12 C12            4.0009    -1.9300    -0.0312 C.3     
  13 C13            4.8278    -2.2488    -1.2892 C.3     
  14 N14            5.8065     0.6235    -0.0630 N.ar    
  15 N15            6.4248     1.7477    -0.0753 N.ar    
  16 C16            5.7983     2.9144    -0.0760 C.ar    
  17 C17            4.4088     2.9533    -0.0629 C.ar    
  18 C18            6.2124    -2.7199    -0.7988 C.3     
  19 C19            5.9521    -3.2314     0.6399 C.3     
  20 C20            4.9120    -2.2185     1.1798 C.3     
  21 N21           -2.3784     1.3196     0.3309 N.ar    
  22 C22           -3.4885     2.0228     0.4509 C.ar    
  23 C23           -4.7291     1.4085     0.3703 C.ar    
  24 C24           -4.7935     0.0319     0.1596 C.ar    
  25 C25           -3.6093    -0.6710     0.0326 C.ar    
  26 N26           -5.9024     2.1613     0.4995 N.3     
  27 C27           -5.5954     3.5822     0.7148 C.3     
  28 C28           -6.9001     4.3804     0.7711 C.3     
  29 N29           -7.7450     3.8572     1.8537 N.3     
  30 C30           -8.0520     2.4362     1.6384 C.3     
  31 C31           -6.7473     1.6381     1.5820 C.3     
  32 O32            6.5115     4.0701    -0.0899 O.3     
  33 C33            7.9356     3.9534    -0.1033 C.3     
  34 H34            1.0852     3.0997    -0.0323 H       
  35 H35           -1.2103    -1.6560    -0.0635 H       
  36 H36            3.1169    -2.5666     0.0057 H       
  37 H37            4.3454    -3.0406    -1.8623 H       
  38 H38            4.9335    -1.3543    -1.9031 H       
  39 H39            3.8745     3.8919    -0.0633 H       
  40 H40            6.5860    -3.5270    -1.4288 H       
  41 H41            6.9161    -1.8876    -0.7862 H       
  42 H42            5.5369    -4.2391     0.6223 H       
  43 H43            6.8662    -3.1993     1.2326 H       
  44 H44            5.4057    -1.3052     1.5118 H       
  45 H45            4.3366    -2.6598     1.9935 H       
  46 H46           -3.4302     3.0888     0.6140 H       
  47 H47           -5.7458    -0.4730     0.0926 H       
  48 H48           -3.6220    -1.7383    -0.1317 H       
  49 H49           -5.0565     3.6994     1.6549 H       
  50 H50           -4.9795     3.9496    -0.1061 H       
  51 H51           -6.6762     5.4303     0.9597 H       
  52 H52           -7.4259     4.2853    -0.1789 H       
  53 H53           -7.3107     4.0011     2.7530 H       
  54 H54           -8.6679     2.0688     2.4592 H       
  55 H55           -8.5909     2.3190     0.6982 H       
  56 H56           -6.9712     0.5881     1.3935 H       
  57 H57           -6.2215     1.7332     2.5321 H       
  58 H58            8.3816     4.9480    -0.1135 H       
  59 H59            8.2646     3.4169     0.7867 H       
  60 H60            8.2470     3.4064    -0.9932 H       
@<TRIPOS>BOND
   1    1    2 ar
   2    1    6 ar
   3    2    3 ar
   4    2   10 1
   5    3    4 ar
   6    4    5 ar
   7    4    7 1
   8    5    6 ar
   9    5    9 1
  10    6   34 1
  11    7    8 1
  12    7   12 1
  13    8    9 ar
  14    8   14 ar
  15    9   17 ar
  16   10   11 1
  17   10   35 1
  18   11   21 ar
  19   11   25 ar
  20   12   13 1
  21   12   20 1
  22   12   36 1
  23   13   18 1
  24   13   37 1
  25   13   38 1
  26   14   15 ar
  27   15   16 ar
  28   16   17 ar
  29   16   32 1
  30   17   39 1
  31   18   19 1
  32   18   40 1
  33   18   41 1
  34   19   20 1
  35   19   42 1
  36   19   43 1
  37   20   44 1
  38   20   45 1
  39   21   22 ar
  40   22   23 ar
  41   22   46 1
  42   23   24 ar
  43   23   26 1
  44   24   25 ar
  45   24   47 1
  46   25   48 1
  47   26   27 1
  48   26   31 1
  49   27   28 1
  50   27   49 1
  51   27   50 1
  52   28   29 1
  53   28   51 1
  54   28   52 1
  55   29   30 1
  56   29   53 1
  57   30   31 1
  58   30   54 1
  59   30   55 1
  60   31   56 1
  61   31   57 1
  62   32   33 1
  63   33   58 1
  64   33   59 1
  65   33   60 1

#	End of record

