#	Name: ASD01811215
#	Creating user name:	WinNT
#	Creation time:	15. 06. 2019 19:26

#	Modifying user name:	WinNT
#	Modification time:	15. 06. 2019 19:26

#	Program:	/corina/corina34_cracker 3.40 0067  02.08.2006

@<TRIPOS>MOLECULE
ASD01811215
  41   42    0    0    0
SMALL
NO_CHARGES


@<TRIPOS>ATOM
   1 C1            -0.4730     1.4910     2.5009 C.2     
   2 C2            -0.4568     0.1264     1.9348 C.ar    
   3 C3             0.7494    -0.4467     1.5230 C.ar    
   4 C4             0.7661    -1.7216     0.9939 C.ar    
   5 C5            -0.4071    -2.4392     0.8677 C.ar    
   6 C6            -1.6198    -1.8785     1.2748 C.ar    
   7 C7            -1.6434    -0.5945     1.8156 C.ar    
   8 O8             0.5716     2.0757     2.7065 O.2     
   9 O9            -1.6465     2.0888     2.7839 O.3     
  10 C10           -0.3788    -3.8303     0.2888 C.3     
  11 C11            2.0346     0.3289     1.6564 C.3     
  12 C12           -2.8747    -2.6479     1.1380 C.2     
  13 N13           -2.9619    -3.9120     0.7754 N.2     
  14 C14           -4.2374    -4.2873     0.7554 C.2     
  15 C15           -5.0056    -3.2044     1.1252 C.2     
  16 N16           -4.1244    -2.1677     1.3714 N.pl3   
  17 C17           -6.4670    -3.1617     1.2401 C.2     
  18 N18           -7.1194    -1.9897     1.1091 N.am    
  19 O19           -7.0907    -4.1847     1.4539 O.2     
  20 C20           -8.5790    -1.9466     1.2269 C.3     
  21 C21           -6.3689    -0.7587     0.8488 C.3     
  22 C22           -1.5866     3.4297     3.3379 C.3     
  23 H23            1.7010    -2.1598     0.6768 H       
  24 H24           -2.5777    -0.1582     2.1367 H       
  25 H25           -0.2320    -4.5544     1.0902 H       
  26 H26           -1.3236    -4.0332    -0.2155 H       
  27 H27            0.4394    -3.9095    -0.4269 H       
  28 H28            2.4175     0.2257     2.6717 H       
  29 H29            2.7684    -0.0595     0.9501 H       
  30 H30            1.8475     1.3815     1.4438 H       
  31 H31           -4.6065    -5.2682     0.4947 H       
  32 H32           -4.3544    -1.2689     1.6544 H       
  33 H33           -8.8546    -1.7747     2.2674 H       
  34 H34           -8.9697    -1.1379     0.6092 H       
  35 H35           -8.9987    -2.8951     0.8918 H       
  36 H36           -5.3201    -1.0018     0.6784 H       
  37 H37           -6.7755    -0.2650    -0.0339 H       
  38 H38           -6.4527    -0.0935     1.7082 H       
  39 H39           -1.0337     3.4104     4.2771 H       
  40 H40           -1.0830     4.0916     2.6334 H       
  41 H41           -2.5979     3.7935     3.5190 H       
@<TRIPOS>BOND
   1    1    2 1
   2    1    8 2
   3    1    9 1
   4    2    3 ar
   5    2    7 ar
   6    3    4 ar
   7    3   11 1
   8    4    5 ar
   9    4   23 1
  10    5    6 ar
  11    5   10 1
  12    6    7 ar
  13    6   12 1
  14    7   24 1
  15    9   22 1
  16   10   25 1
  17   10   26 1
  18   10   27 1
  19   11   28 1
  20   11   29 1
  21   11   30 1
  22   12   13 2
  23   12   16 1
  24   13   14 1
  25   14   15 2
  26   14   31 1
  27   15   16 1
  28   15   17 1
  29   16   32 1
  30   17   18 am
  31   17   19 2
  32   18   20 1
  33   18   21 1
  34   20   33 1
  35   20   34 1
  36   20   35 1
  37   21   36 1
  38   21   37 1
  39   21   38 1
  40   22   39 1
  41   22   40 1
  42   22   41 1

#	End of record

