#	Name: ASD03730568
#	Creating user name:	WinNT
#	Creation time:	15. 06. 2019 20:44

#	Modifying user name:	WinNT
#	Modification time:	15. 06. 2019 20:44

#	Program:	/corina/corina34_cracker 3.40 0067  02.08.2006

@<TRIPOS>MOLECULE
ASD03730568
  51   56    0    0    0
SMALL
NO_CHARGES


@<TRIPOS>ATOM
   1 C1            -0.0187     1.5021     0.0185 C.2     
   2 C2             0.0011    -0.0045    -0.0114 C.3     
   3 O3             1.0236     2.1220     0.0366 O.2     
   4 N4            -1.1946     2.1607     0.0195 N.am    
   5 C5            -1.2153     3.5564     0.1329 C.ar    
   6 C6            -2.3326     4.1965     0.6587 C.ar    
   7 C7            -2.3489     5.5747     0.7689 C.ar    
   8 C8            -1.2559     6.3153     0.3567 C.ar    
   9 C9            -0.1445     5.6810    -0.1662 C.ar    
  10 C10           -0.1190     4.3036    -0.2739 C.ar    
  11 F11           -3.4003     3.4729     1.0609 F       
  12 O12            5.2106    -2.5095     1.4045 O.3     
  13 C13            5.5510    -1.2135     1.6564 C.ar    
  14 C14            4.5567    -0.3389     1.2242 C.ar    
  15 C15            3.4546    -1.1895     0.6537 C.3     
  16 C16            3.7916    -2.5943     1.1728 C.3     
  17 O17            7.8782     1.3751     2.9724 O.3     
  18 C18            6.8517     0.6754     2.4140 C.ar    
  19 C19            5.8535     1.5275     1.9582 C.ar    
  20 C20            6.3104     2.9440     2.2471 C.3     
  21 C21            7.8178     2.7416     2.5302 C.3     
  22 C22            4.7134     1.0227     1.3715 C.ar    
  23 C23            6.6940    -0.6966     2.2535 C.ar    
  24 N24            1.3886    -0.4747    -0.0131 N.am    
  25 C25            2.0948    -0.7389     1.1043 C.2     
  26 C26            3.4126    -1.1427    -0.8448 C.ar    
  27 C27            4.3298    -1.4329    -1.8332 C.ar    
  28 C28            3.9817    -1.2856    -3.1664 C.ar    
  29 C29            2.7137    -0.8480    -3.5014 C.ar    
  30 C30            1.7934    -0.5577    -2.5159 C.ar    
  31 C31            2.1335    -0.7019    -1.1728 C.ar    
  32 O32            1.7079    -0.6338     2.2489 O.2     
  33 F33            5.5678    -1.8602    -1.5015 F       
  34 H34           -0.5129    -0.3921     0.8682 H       
  35 H35           -0.5030    -0.3567    -0.9114 H       
  36 H36           -2.0265     1.6680    -0.0584 H       
  37 H37           -3.2158     6.0733     1.1767 H       
  38 H38           -1.2709     7.3917     0.4433 H       
  39 H39            0.7070     6.2627    -0.4870 H       
  40 H40            0.7519     3.8092    -0.6783 H       
  41 H41            3.5668    -3.3495     0.4196 H       
  42 H42            3.2596    -2.8018     2.1012 H       
  43 H43            6.1597     3.5865     1.3796 H       
  44 H44            5.8004     3.3470     3.1220 H       
  45 H45            8.1573     3.4169     3.3155 H       
  46 H46            8.4033     2.8794     1.6211 H       
  47 H47            3.9417     1.6948     1.0263 H       
  48 H48            7.4677    -1.3673     2.5968 H       
  49 H49            4.6990    -1.5117    -3.9416 H       
  50 H50            2.4424    -0.7326    -4.5404 H       
  51 H51            0.8053    -0.2160    -2.7866 H       
@<TRIPOS>BOND
   1    1    2 1
   2    1    3 2
   3    1    4 am
   4    2   24 1
   5    2   34 1
   6    2   35 1
   7    4    5 1
   8    4   36 1
   9    5    6 ar
  10    5   10 ar
  11    6    7 ar
  12    6   11 1
  13    7    8 ar
  14    7   37 1
  15    8    9 ar
  16    8   38 1
  17    9   10 ar
  18    9   39 1
  19   10   40 1
  20   12   13 1
  21   12   16 1
  22   13   14 ar
  23   13   23 ar
  24   14   15 1
  25   14   22 ar
  26   15   16 1
  27   15   25 1
  28   15   26 1
  29   16   41 1
  30   16   42 1
  31   17   18 1
  32   17   21 1
  33   18   19 ar
  34   18   23 ar
  35   19   20 1
  36   19   22 ar
  37   20   21 1
  38   20   43 1
  39   20   44 1
  40   21   45 1
  41   21   46 1
  42   22   47 1
  43   23   48 1
  44   24   25 am
  45   24   31 1
  46   25   32 2
  47   26   27 ar
  48   26   31 ar
  49   27   28 ar
  50   27   33 1
  51   28   29 ar
  52   28   49 1
  53   29   30 ar
  54   29   50 1
  55   30   31 ar
  56   30   51 1

#	End of record

