#	Name: ASD01000001
#	Creating user name:	WinNT
#	Creation time:	15. 06. 2019 18:54

#	Modifying user name:	WinNT
#	Modification time:	15. 06. 2019 18:54

#	Program:	/corina/corina34_cracker 3.40 0067  02.08.2006

@<TRIPOS>MOLECULE
ASD01000001
  36   37    0    0    0
SMALL
NO_CHARGES


@<TRIPOS>ATOM
   1 C1            -0.0429     1.2816     0.0325 C.2     
   2 N2             0.0370    -0.0629    -0.0130 N.am    
   3 C3             1.3714    -0.6847    -0.0540 C.3     
   4 C4             2.5644     0.2495    -0.0416 C.2     
   5 C5             2.3223     1.5778     0.0058 C.2     
   6 N6             1.0463     2.0603     0.0413 N.am    
   7 C7             3.8861    -0.2520    -0.0780 C.2     
   8 O8             4.8254     0.5152    -0.1773 O.2     
   9 O9             4.1058    -1.5813    -0.0027 O.3     
  10 S10           -1.5877     2.0184     0.0733 S.2     
  11 C11            3.4801     2.5422     0.0197 C.3     
  12 C12            1.4910    -1.6068     1.1320 C.ar    
  13 C13            2.1130    -2.8327     0.9932 C.ar    
  14 C14            2.2227    -3.6809     2.0852 C.ar    
  15 C15            1.7073    -3.2958     3.3145 C.ar    
  16 C16            1.0864    -2.0692     3.4480 C.ar    
  17 C17            0.9832    -1.2230     2.3592 C.ar    
  18 O18            2.8337    -4.8874     1.9511 O.3     
  19 C19            5.4659    -2.0176    -0.0454 C.3     
  20 C20            5.5152    -3.5437     0.0517 C.3     
  21 H21           -0.7652    -0.6082    -0.0182 H       
  22 H22            1.4307    -1.2937    -0.9560 H       
  23 H23            0.9214     3.0216     0.0749 H       
  24 H24            3.8110     2.7274    -1.0022 H       
  25 H25            3.1655     3.4810     0.4755 H       
  26 H26            4.3013     2.1158     0.5959 H       
  27 H27            2.5131    -3.1303     0.0352 H       
  28 H28            1.7912    -3.9546     4.1661 H       
  29 H29            0.6847    -1.7691     4.4046 H       
  30 H30            0.5016    -0.2623     2.4667 H       
  31 H31            3.7854    -4.8674     2.1212 H       
  32 H32            5.9206    -1.6983    -0.9831 H       
  33 H33            6.0134    -1.5825     0.7906 H       
  34 H34            6.5527    -3.8765     0.0191 H       
  35 H35            5.0605    -3.8630     0.9894 H       
  36 H36            4.9677    -3.9789    -0.7843 H       
@<TRIPOS>BOND
   1    1    2 am
   2    1    6 am
   3    1   10 2
   4    2    3 1
   5    2   21 1
   6    3    4 1
   7    3   12 1
   8    3   22 1
   9    4    5 2
  10    4    7 1
  11    5    6 1
  12    5   11 1
  13    6   23 1
  14    7    8 2
  15    7    9 1
  16    9   19 1
  17   11   24 1
  18   11   25 1
  19   11   26 1
  20   12   13 ar
  21   12   17 ar
  22   13   14 ar
  23   13   27 1
  24   14   15 ar
  25   14   18 1
  26   15   16 ar
  27   15   28 1
  28   16   17 ar
  29   16   29 1
  30   17   30 1
  31   18   31 1
  32   19   20 1
  33   19   32 1
  34   19   33 1
  35   20   34 1
  36   20   35 1
  37   20   36 1

#	End of record

