#	Name: ASD04910025
#	Creating user name:	WinNT
#	Creation time:	15. 06. 2019 20:55

#	Modifying user name:	WinNT
#	Modification time:	15. 06. 2019 20:55

#	Program:	/corina/corina34_cracker 3.40 0067  02.08.2006

@<TRIPOS>MOLECULE
ASD04910025
  57   59    0    0    0
SMALL
NO_CHARGES


@<TRIPOS>ATOM
   1 C1            -0.1521     1.4680     0.1320 C.2     
   2 C2            -0.1105    -0.0382     0.1090 C.3     
   3 C3             1.3452    -0.5076     0.0688 C.3     
   4 O4             0.8769     2.1011     0.1177 O.2     
   5 O5            -1.3325     2.1064     0.1628 O.3     
   6 C6             2.5707    -2.6128     0.0099 C.2     
   7 C7             2.6116    -4.0905    -0.0127 C.ar    
   8 C8             3.8372    -4.7573    -0.0505 C.ar    
   9 C9             3.8683    -6.1364    -0.0709 C.ar    
  10 C10            2.6881    -6.8583    -0.0545 C.ar    
  11 C11            1.4698    -6.2035    -0.0170 C.ar    
  12 C12            1.4248    -4.8249     0.0096 C.ar    
  13 O13            3.6059    -1.9759    -0.0045 O.2     
  14 N14            1.3856    -1.9719     0.0464 N.am    
  15 C15            2.7297    -8.3646    -0.0779 C.3     
  16 C16            2.5263    -8.9026     1.3398 C.3     
  17 C17            2.6924   -10.4235     1.3369 C.3     
  18 C18            2.4890   -10.9615     2.7547 C.3     
  19 O19            1.6915    -8.8566    -0.9276 O.3     
  20 C20            0.9672   -10.5810    -2.4046 C.ar    
  21 C21            1.9543    -9.9904    -1.6304 C.ar    
  22 C22            3.2178   -10.5723    -1.5819 C.ar    
  23 C23            3.4407   -11.7257    -2.3136 C.ar    
  24 C24            2.4034   -12.2606    -3.0668 C.ar    
  25 N25            1.2149   -11.6801    -3.0896 N.ar    
  26 N26            2.6182   -13.4266    -3.8103 N.pl3   
  27 N27            3.8160   -14.1495    -3.8843 N.2     
  28 C28            3.6275   -15.1749    -4.6747 C.2     
  29 C29            2.3054   -15.1422    -5.1317 C.2     
  30 C30            1.7010   -14.0625    -4.5841 C.2     
  31 C31            1.6654   -16.1375    -6.0649 C.3     
  32 F32            2.6009   -17.1173    -6.4144 F       
  33 F33            0.5751   -16.7398    -5.4279 F       
  34 F34            1.2262   -15.4795    -7.2187 F       
  35 H35           -0.5936    -0.4288     1.0046 H       
  36 H36           -0.6343    -0.4027    -0.7747 H       
  37 H37            1.8282    -0.1171    -0.8269 H       
  38 H38            1.8690    -0.1431     0.9524 H       
  39 H39           -1.3086     3.0730     0.1766 H       
  40 H40            4.7591    -4.1949    -0.0641 H       
  41 H41            4.8159    -6.6536    -0.1002 H       
  42 H42            0.5522    -6.7729    -0.0043 H       
  43 H43            0.4734    -4.3150     0.0433 H       
  44 H44            0.5595    -2.4801     0.0579 H       
  45 H45            3.6967    -8.6955    -0.4569 H       
  46 H46            3.2649    -8.4577     2.0067 H       
  47 H47            1.5245    -8.6471     1.6851 H       
  48 H48            1.9538   -10.8684     0.6700 H       
  49 H49            3.6942   -10.6790     0.9916 H       
  50 H50            2.6073   -12.0451     2.7526 H       
  51 H51            3.2275   -10.5166     3.4215 H       
  52 H52            1.4871   -10.7061     3.1000 H       
  53 H53           -0.0169   -10.1379    -2.4438 H       
  54 H54            4.0058   -10.1338    -0.9876 H       
  55 H55            4.4090   -12.2037    -2.2994 H       
  56 H56            4.3666   -15.9194    -4.9312 H       
  57 H57            0.6756   -13.7598    -4.7368 H       
@<TRIPOS>BOND
   1    1    2 1
   2    1    4 2
   3    1    5 1
   4    2    3 1
   5    2   35 1
   6    2   36 1
   7    3   14 1
   8    3   37 1
   9    3   38 1
  10    5   39 1
  11    6    7 1
  12    6   13 2
  13    6   14 am
  14    7    8 ar
  15    7   12 ar
  16    8    9 ar
  17    8   40 1
  18    9   10 ar
  19    9   41 1
  20   10   11 ar
  21   10   15 1
  22   11   12 ar
  23   11   42 1
  24   12   43 1
  25   14   44 1
  26   15   16 1
  27   15   19 1
  28   15   45 1
  29   16   17 1
  30   16   46 1
  31   16   47 1
  32   17   18 1
  33   17   48 1
  34   17   49 1
  35   18   50 1
  36   18   51 1
  37   18   52 1
  38   19   21 1
  39   20   21 ar
  40   20   25 ar
  41   20   53 1
  42   21   22 ar
  43   22   23 ar
  44   22   54 1
  45   23   24 ar
  46   23   55 1
  47   24   25 ar
  48   24   26 1
  49   26   27 1
  50   26   30 1
  51   27   28 2
  52   28   29 1
  53   28   56 1
  54   29   30 2
  55   29   31 1
  56   30   57 1
  57   31   32 1
  58   31   33 1
  59   31   34 1

#	End of record

