#	Name: ASD01870296
#	Creating user name:	WinNT
#	Creation time:	15. 06. 2019 19:38

#	Modifying user name:	WinNT
#	Modification time:	15. 06. 2019 19:38

#	Program:	/corina/corina34_cracker 3.40 0067  02.08.2006

@<TRIPOS>MOLECULE
ASD01870296
  33   35    0    0    0
SMALL
NO_CHARGES


@<TRIPOS>ATOM
   1 N1             0.1140     1.3741    -0.6733 N.2     
   2 C2             0.1565     0.0565    -0.8127 C.2     
   3 C3             1.3597    -0.5070    -0.6027 C.2     
   4 S4             2.5034     0.7710    -0.1978 S.3     
   5 C5             1.2215     1.9684    -0.3540 C.2     
   6 N6             1.3731     3.3356    -0.1655 N.am    
   7 C7             0.2235     4.2292    -0.3269 C.3     
   8 C8             2.5779     3.8406     0.1659 C.2     
   9 C9             2.7635     5.3021     0.2669 C.ar    
  10 O10            3.5120     3.0929     0.3817 O.2     
  11 C11            1.7229     6.1104     0.7303 C.ar    
  12 C12            3.9822     5.8806    -0.0951 C.ar    
  13 C13            4.1500     7.2452     0.0016 C.ar    
  14 C14            3.1120     8.0434     0.4577 C.ar    
  15 C15            1.9017     7.4739     0.8230 C.ar    
  16 F16            3.2822     9.3804     0.5514 F       
  17 C17           -1.0403    -0.7414    -1.1749 C.ar    
  18 C18           -2.2768    -0.1256    -1.3867 C.ar    
  19 N19           -3.3177    -0.8743    -1.7083 N.ar    
  20 C20           -3.2007    -2.1818    -1.8296 C.ar    
  21 N21           -2.0533    -2.8023    -1.6387 N.ar    
  22 C22           -0.9613    -2.1292    -1.3195 C.ar    
  23 H23            1.5858    -1.5609    -0.6705 H       
  24 H24           -0.2700     4.3638     0.6357 H       
  25 H25            0.5639     5.1955    -0.6989 H       
  26 H26           -0.4787     3.7931    -1.0374 H       
  27 H27            0.7798     5.6679     1.0150 H       
  28 H28            4.7916     5.2598    -0.4497 H       
  29 H29            5.0919     7.6936    -0.2780 H       
  30 H30            1.0976     8.0999     1.1808 H       
  31 H31           -2.3804     0.9450    -1.2887 H       
  32 H32           -4.0721    -2.7628    -2.0933 H       
  33 H33           -0.0239    -2.6440    -1.1688 H       
@<TRIPOS>BOND
   1    1    2 1
   2    1    5 2
   3    2    3 2
   4    2   17 1
   5    3    4 1
   6    3   23 1
   7    4    5 1
   8    5    6 1
   9    6    7 1
  10    6    8 am
  11    7   24 1
  12    7   25 1
  13    7   26 1
  14    8    9 1
  15    8   10 2
  16    9   12 ar
  17    9   11 ar
  18   11   15 ar
  19   11   27 1
  20   12   13 ar
  21   12   28 1
  22   13   14 ar
  23   13   29 1
  24   14   15 ar
  25   14   16 1
  26   15   30 1
  27   17   18 ar
  28   17   22 ar
  29   18   19 ar
  30   18   31 1
  31   19   20 ar
  32   20   21 ar
  33   20   32 1
  34   21   22 ar
  35   22   33 1

#	End of record

