#	Name: ASD00310165
#	Creating user name:	WinNT
#	Creation time:	15. 06. 2019 18:33

#	Modifying user name:	WinNT
#	Modification time:	15. 06. 2019 18:33

#	Program:	/corina/corina34_cracker 3.40 0067  02.08.2006

@<TRIPOS>MOLECULE
ASD00310165
  29   29    0    0    0
SMALL
NO_CHARGES


@<TRIPOS>ATOM
   1 C1            -0.0187     1.5258     0.0104 C.3     
   2 C2             0.0021    -0.0041     0.0020 C.3     
   3 C3            -1.4333    -0.5336     0.0129 C.3     
   4 O4             1.3220     2.0204     0.0003 O.3     
   5 C5             0.7182    -0.4975    -1.2568 C.3     
   6 C6             0.7421    -0.5109     1.2415 C.3     
   7 O7            -1.4139    -1.9625     0.0050 O.3     
   8 C8            -2.6164    -2.5960     0.0131 C.ar    
   9 C9            -2.6713    -3.9821     0.0062 C.ar    
  10 C10           -3.8945    -4.6240     0.0144 C.ar    
  11 C11           -5.0642    -3.8855     0.0290 C.ar    
  12 C12           -5.0117    -2.5030     0.0359 C.ar    
  13 C13           -3.7905    -1.8573     0.0340 C.ar    
  14 Br14          -6.7373    -4.7668     0.0389 Br      
  15 H15           -0.5459     1.8868    -0.8726 H       
  16 H16           -0.5289     1.8773     0.9072 H       
  17 H17           -1.9435    -0.1821     0.9097 H       
  18 H18           -1.9605    -0.1726    -0.8702 H       
  19 H19            1.3852     2.9853     0.0049 H       
  20 H20            1.7408    -0.1202    -1.2645 H       
  21 H21            0.7330    -1.5874    -1.2628 H       
  22 H22            0.1910    -0.1364    -2.1398 H       
  23 H23            0.2319    -0.1594     2.1383 H       
  24 H24            0.7568    -1.6008     1.2356 H       
  25 H25            1.7647    -0.1336     1.2338 H       
  26 H26           -1.7584    -4.5590    -0.0060 H       
  27 H27           -3.9377    -5.7031     0.0090 H       
  28 H28           -5.9260    -1.9283     0.0473 H       
  29 H29           -3.7498    -0.7781     0.0439 H       
@<TRIPOS>BOND
   1    1    2 1
   2    1    4 1
   3    1   15 1
   4    1   16 1
   5    2    3 1
   6    2    5 1
   7    2    6 1
   8    3    7 1
   9    3   17 1
  10    3   18 1
  11    4   19 1
  12    5   20 1
  13    5   21 1
  14    5   22 1
  15    6   23 1
  16    6   24 1
  17    6   25 1
  18    7    8 1
  19    8    9 ar
  20    8   13 ar
  21    9   10 ar
  22    9   26 1
  23   10   11 ar
  24   10   27 1
  25   11   12 ar
  26   11   14 1
  27   12   13 ar
  28   12   28 1
  29   13   29 1

#	End of record

