#	Name: ASD01910281
#	Creating user name:	WinNT
#	Creation time:	15. 06. 2019 19:55

#	Modifying user name:	WinNT
#	Modification time:	15. 06. 2019 19:55

#	Program:	/corina/corina34_cracker 3.40 0067  02.08.2006

@<TRIPOS>MOLECULE
ASD01910281
  46   49    0    0    0
SMALL
NO_CHARGES


@<TRIPOS>ATOM
   1 C1            -0.0198     1.4730    -0.0092 C.ar    
   2 C2             0.0021    -0.0041     0.0020 C.2     
   3 O3             1.0596    -0.5970    -0.0871 O.2     
   4 N4            -1.1504    -0.6943     0.1110 N.am    
   5 C5            -1.1597    -2.1589    -0.0049 C.3     
   6 C6            -1.8500    -2.7469     1.2298 C.3     
   7 C7            -3.2377    -2.1195     1.3807 C.3     
   8 C8            -3.0975    -0.6086     1.5794 C.3     
   9 C9            -2.4205     0.0032     0.3542 C.3     
  10 N10           -2.5677    -6.0733     0.2507 N.2     
  11 C11           -1.8599    -6.3401     1.3173 C.2     
  12 N12           -1.4806    -5.1571     1.8510 N.2     
  13 C13           -1.9874    -4.2387     1.0666 C.2     
  14 O14           -2.6495    -4.8733     0.0942 O.3     
  15 C15           -1.5338    -7.6891     1.8435 C.ar    
  16 C16           -1.9951    -8.8268     1.1848 C.ar    
  17 C17           -1.6885   -10.0788     1.6783 C.ar    
  18 C18           -0.9247   -10.2052     2.8245 C.ar    
  19 C19           -0.4641    -9.0790     3.4824 C.ar    
  20 C20           -0.7604    -7.8222     2.9947 C.ar    
  21 C21           -0.9998     2.1535    -0.7343 C.ar    
  22 C22           -1.0166     3.5322    -0.7422 C.ar    
  23 C23           -0.0630     4.2439    -0.0322 C.ar    
  24 C24            0.9149     3.5733     0.6908 C.ar    
  25 C25            0.9365     2.1934     0.7101 C.ar    
  26 F26           -0.0843     5.5947    -0.0435 F       
  27 F27            1.8427     4.2723     1.3805 F       
  28 N28           -0.5994   -11.5505     3.3493 N.pl3   
  29 O29           -1.0042   -12.5436     2.7720 O.2     
  30 O30            0.0730   -11.6643     4.3585 O.2     
  31 H31           -1.7051    -2.4510    -0.9023 H       
  32 H32           -0.1354    -2.5275    -0.0611 H       
  33 H33           -1.2546    -2.5308     2.1170 H       
  34 H34           -3.8241    -2.3149     0.4829 H       
  35 H35           -3.7408    -2.5542     2.2445 H       
  36 H36           -4.0848    -0.1656     1.7101 H       
  37 H37           -2.4904    -0.4126     2.4632 H       
  38 H38           -2.2294     1.0614     0.5326 H       
  39 H39           -3.0668    -0.1119    -0.5160 H       
  40 H40           -2.5918    -8.7293     0.2899 H       
  41 H41           -2.0458   -10.9614     1.1687 H       
  42 H42            0.1319    -9.1833     4.3770 H       
  43 H43           -0.4000    -6.9436     3.5090 H       
  44 H44           -1.7437     1.6005    -1.2886 H       
  45 H45           -1.7745     4.0586    -1.3034 H       
  46 H46            1.6969     1.6718     1.2723 H       
@<TRIPOS>BOND
   1    1    2 1
   2    1   21 ar
   3    1   25 ar
   4    2    3 2
   5    2    4 am
   6    4    5 1
   7    4    9 1
   8    5    6 1
   9    5   31 1
  10    5   32 1
  11    6    7 1
  12    6   13 1
  13    6   33 1
  14    7    8 1
  15    7   34 1
  16    7   35 1
  17    8    9 1
  18    8   36 1
  19    8   37 1
  20    9   38 1
  21    9   39 1
  22   10   11 2
  23   10   14 1
  24   11   12 1
  25   11   15 1
  26   12   13 2
  27   13   14 1
  28   15   16 ar
  29   15   20 ar
  30   16   17 ar
  31   16   40 1
  32   17   18 ar
  33   17   41 1
  34   18   19 ar
  35   18   28 1
  36   19   20 ar
  37   19   42 1
  38   20   43 1
  39   21   22 ar
  40   21   44 1
  41   22   23 ar
  42   22   45 1
  43   23   24 ar
  44   23   26 1
  45   24   25 ar
  46   24   27 1
  47   25   46 1
  48   28   29 2
  49   28   30 2

#	End of record

