#	Name: ASD09116342
#	Creating user name:	WinNT
#	Creation time:	15. 06. 2019 21:21

#	Modifying user name:	WinNT
#	Modification time:	15. 06. 2019 21:21

#	Program:	/corina/corina34_cracker 3.40 0067  02.08.2006

@<TRIPOS>MOLECULE
ASD09116342
  82   88    0    0    0
SMALL
NO_CHARGES


@<TRIPOS>ATOM
   1 N1            -0.1345     1.7728     0.2404 N.2     
   2 N2            -0.1664     0.3974     0.5217 N.pl3   
   3 C3             1.1277     2.1274     0.2064 C.2     
   4 N4             1.8889     1.0541     0.4501 N.2     
   5 C5             1.1225     0.0019     0.6425 C.2     
   6 N6             1.5568    -1.2804     0.9198 N.pl3   
   7 C7            -1.3028    -0.4036     0.6516 C.ar    
   8 N8             1.6006     3.4156    -0.0438 N.pl3   
   9 C9             2.9701     3.6900     0.0542 C.ar    
  10 C10            3.5395     4.6761    -0.7416 C.ar    
  11 C11            3.7577     2.9806     0.9508 C.ar    
  12 C12            5.1091     3.2510     1.0485 C.ar    
  13 C13            5.6804     4.2319     0.2506 C.ar    
  14 C14            4.8913     4.9469    -0.6442 C.ar    
  15 N15            7.0511     4.5059     0.3501 N.3     
  16 C16            7.4247     5.6394    -0.5055 C.3     
  17 C17            7.8501     3.3153     0.0330 C.3     
  18 C18            9.3296     3.6084     0.2919 C.3     
  19 C19            9.7709     4.7887    -0.5780 C.3     
  20 C20            8.8915     6.0019    -0.2627 C.3     
  21 N21           11.1748     5.1122    -0.2909 N.3     
  22 F22            5.4468     5.9022    -1.4214 F       
  23 N23           -1.2238    -1.7064     0.4268 N.ar    
  24 N24           -2.2411    -2.4863     0.5228 N.ar    
  25 C25           -3.4378    -2.0279     0.8539 C.ar    
  26 C26           -3.6122    -0.6686     1.1304 C.ar    
  27 C27           -2.5219     0.1686     1.0243 C.ar    
  28 C28           -4.6223    -2.9151     0.9128 C.ar    
  29 C29           -5.7901    -2.5253     0.2545 C.ar    
  30 C30           -5.7974    -1.2481    -0.5403 C.3     
  31 C31           -5.8973    -0.0266     0.3691 C.3     
  32 C32           -4.9575    -0.1633     1.5640 C.3     
  33 C33           -4.5828    -4.1165     1.6132 C.ar    
  34 C34           -5.7123    -4.9145     1.6703 C.ar    
  35 C35           -6.8818    -4.5118     1.0301 C.ar    
  36 C36           -6.9160    -3.3175     0.3248 C.ar    
  37 C37           12.0586     3.9842    -0.6380 C.3     
  38 C38           13.1030     4.5140    -1.6429 C.3     
  39 C39           13.1029     6.0420    -1.3741 C.3     
  40 C40           11.6104     6.3028    -1.0515 C.3     
  41 O41           -7.9934    -5.2914     1.0966 O.3     
  42 C42           -9.1587    -4.8191     0.4175 C.3     
  43 O43           -5.6801    -6.0915     2.3508 O.3     
  44 C44           -4.4473    -6.4418     2.9829 C.3     
  45 H45            2.5063    -1.4669     0.9874 H       
  46 H46            0.9122    -1.9940     1.0467 H       
  47 H47            0.9806     4.1213    -0.2858 H       
  48 H48            2.9262     5.2306    -1.4364 H       
  49 H49            3.3137     2.2171     1.5724 H       
  50 H50            5.7210     2.6989     1.7465 H       
  51 H51            7.2866     5.3658    -1.5516 H       
  52 H52            6.7946     6.4966    -0.2683 H       
  53 H53            7.5290     2.4845     0.6613 H       
  54 H54            7.7100     3.0526    -1.0156 H       
  55 H55            9.4726     3.8577     1.3433 H       
  56 H56            9.9239     2.7296     0.0416 H       
  57 H57            9.6647     4.5254    -1.6303 H       
  58 H58            9.1728     6.8331    -0.9092 H       
  59 H59            9.0276     6.2888     0.7800 H       
  60 H60           -2.6087     1.2282     1.2138 H       
  61 H61           -4.8778    -1.1850    -1.1222 H       
  62 H62           -6.6487    -1.2565    -1.2209 H       
  63 H63           -5.6300     0.8654    -0.1974 H       
  64 H64           -6.9220     0.0708     0.7278 H       
  65 H65           -5.3887    -0.8618     2.2812 H       
  66 H66           -4.8385     0.8101     2.0398 H       
  67 H67           -3.6748    -4.4254     2.1098 H       
  68 H68           -7.8253    -3.0083    -0.1692 H       
  69 H69           12.5592     3.6161     0.2576 H       
  70 H70           11.4765     3.1842    -1.0954 H       
  71 H71           14.0850     4.0870    -1.4393 H       
  72 H72           12.7945     4.3028    -2.6667 H       
  73 H73           13.7355     6.2885    -0.5213 H       
  74 H74           13.4131     6.5945    -2.2610 H       
  75 H75           11.0341     6.3969    -1.9719 H       
  76 H76           11.5050     7.2012    -0.4433 H       
  77 H77           -9.4529    -3.8537     0.8293 H       
  78 H78           -8.9408    -4.7097    -0.6449 H       
  79 H79           -9.9711    -5.5335     0.5501 H       
  80 H80           -3.6618    -6.5167     2.2309 H       
  81 H81           -4.1815    -5.6753     3.7108 H       
  82 H82           -4.5582    -7.4008     3.4891 H       
@<TRIPOS>BOND
   1    1    2 1
   2    1    3 2
   3    2    7 1
   4    2    5 1
   5    3    4 1
   6    3    8 1
   7    4    5 2
   8    5    6 1
   9    6   45 1
  10    6   46 1
  11    7   23 ar
  12    7   27 ar
  13    8    9 1
  14    8   47 1
  15    9   10 ar
  16    9   11 ar
  17   10   14 ar
  18   10   48 1
  19   11   12 ar
  20   11   49 1
  21   12   13 ar
  22   12   50 1
  23   13   14 ar
  24   13   15 1
  25   14   22 1
  26   15   17 1
  27   15   16 1
  28   16   20 1
  29   16   51 1
  30   16   52 1
  31   17   18 1
  32   17   53 1
  33   17   54 1
  34   18   19 1
  35   18   55 1
  36   18   56 1
  37   19   20 1
  38   19   21 1
  39   19   57 1
  40   20   58 1
  41   20   59 1
  42   21   37 1
  43   21   40 1
  44   23   24 ar
  45   24   25 ar
  46   25   26 ar
  47   25   28 1
  48   26   27 ar
  49   26   32 1
  50   27   60 1
  51   28   29 ar
  52   28   33 ar
  53   29   30 1
  54   29   36 ar
  55   30   31 1
  56   30   61 1
  57   30   62 1
  58   31   32 1
  59   31   63 1
  60   31   64 1
  61   32   65 1
  62   32   66 1
  63   33   34 ar
  64   33   67 1
  65   34   35 ar
  66   34   43 1
  67   35   36 ar
  68   35   41 1
  69   36   68 1
  70   37   38 1
  71   37   69 1
  72   37   70 1
  73   38   39 1
  74   38   71 1
  75   38   72 1
  76   39   40 1
  77   39   73 1
  78   39   74 1
  79   40   75 1
  80   40   76 1
  81   41   42 1
  82   42   77 1
  83   42   78 1
  84   42   79 1
  85   43   44 1
  86   44   80 1
  87   44   81 1
  88   44   82 1

#	End of record

