#	Name: ASD01120211
#	Creating user name:	WinNT
#	Creation time:	15. 06. 2019 18:59

#	Modifying user name:	WinNT
#	Modification time:	15. 06. 2019 18:59

#	Program:	/corina/corina34_cracker 3.40 0067  02.08.2006

@<TRIPOS>MOLECULE
ASD01120211
  41   43    0    0    0
SMALL
NO_CHARGES


@<TRIPOS>ATOM
   1 C1            -0.3170     2.0664    -0.7207 C.ar    
   2 C2            -0.1590     0.6909    -0.7839 C.ar    
   3 C3            -1.2505    -0.1455    -0.6598 C.ar    
   4 C4            -2.5132     0.3909    -0.4704 C.ar    
   5 C5            -2.6777     1.7829    -0.4053 C.ar    
   6 C6            -1.5656     2.6165    -0.5270 C.ar    
   7 O7            -3.7454    -0.1466    -0.3175 O.3     
   8 C8            -4.6259     0.8582    -0.1659 C.2     
   9 N9            -4.0066     2.0098    -0.2158 N.2     
  10 N10           -5.9811     0.6987     0.0147 N.am    
  11 S11           -6.6550    -0.8119    -0.0649 S.o2    
  12 O12           -5.8673    -1.6473     0.7724 O.2     
  13 O13           -8.0545    -0.6366     0.1076 O.2     
  14 C14           -6.4261    -1.3990    -1.7103 C.ar    
  15 C15           -7.0338    -0.7469    -2.7682 C.ar    
  16 C16           -6.8537    -1.2077    -4.0605 C.ar    
  17 C17           -6.0666    -2.3190    -4.2943 C.ar    
  18 C18           -5.4583    -2.9711    -3.2362 C.ar    
  19 C19           -5.6348    -2.5078    -1.9447 C.ar    
  20 Cl20          -8.0228     0.6493    -2.4744 Cl      
  21 Cl21          -4.4694    -4.3673    -3.5300 Cl      
  22 C22            0.8845     2.9655    -0.8584 C.3     
  23 C23            2.1395     2.1130    -1.0563 C.3     
  24 C24            0.6972     3.8855    -2.0664 C.3     
  25 C25            1.0367     3.8108     0.4078 C.3     
  26 H26            0.8248     0.2703    -0.9315 H       
  27 H27           -1.1199    -1.2163    -0.7108 H       
  28 H28           -1.6839     3.6889    -0.4780 H       
  29 H29           -6.5415     1.4712     0.1886 H       
  30 H30           -7.3287    -0.6989    -4.8863 H       
  31 H31           -5.9263    -2.6788    -5.3029 H       
  32 H32           -5.1599    -3.0166    -1.1189 H       
  33 H33            2.0310     1.5107    -1.9583 H       
  34 H34            3.0085     2.7633    -1.1559 H       
  35 H35            2.2729     1.4575    -0.1957 H       
  36 H36           -0.1968     4.4929    -1.9254 H       
  37 H37            1.5663     4.5359    -2.1660 H       
  38 H38            0.5888     3.2833    -2.9684 H       
  39 H39            1.1701     3.1554     1.2684 H       
  40 H40            1.9057     4.4612     0.3082 H       
  41 H41            0.1426     4.4182     0.5488 H       
@<TRIPOS>BOND
   1    1    2 ar
   2    1   22 1
   3    1    6 ar
   4    2    3 ar
   5    2   26 1
   6    3    4 ar
   7    3   27 1
   8    4    5 ar
   9    4    7 1
  10    5    6 ar
  11    5    9 1
  12    6   28 1
  13    7    8 1
  14    8    9 2
  15    8   10 1
  16   10   11 am
  17   10   29 1
  18   11   12 2
  19   11   13 2
  20   11   14 1
  21   14   15 ar
  22   14   19 ar
  23   15   16 ar
  24   15   20 1
  25   16   17 ar
  26   16   30 1
  27   17   18 ar
  28   17   31 1
  29   18   19 ar
  30   18   21 1
  31   19   32 1
  32   22   23 1
  33   22   24 1
  34   22   25 1
  35   23   33 1
  36   23   34 1
  37   23   35 1
  38   24   36 1
  39   24   37 1
  40   24   38 1
  41   25   39 1
  42   25   40 1
  43   25   41 1

#	End of record

