#	Name: ASD02560397
#	Creating user name:	WinNT
#	Creation time:	15. 06. 2019 20:25

#	Modifying user name:	WinNT
#	Modification time:	15. 06. 2019 20:25

#	Program:	/corina/corina34_cracker 3.40 0067  02.08.2006

@<TRIPOS>MOLECULE
ASD02560397
  47   50    0    0    0
SMALL
NO_CHARGES


@<TRIPOS>ATOM
   1 C1             0.1000     1.3932     0.9604 C.2     
   2 C2             0.0812     0.0044     0.7404 C.2     
   3 C3             1.2264    -0.6612     0.4895 C.2     
   4 N4             2.4229     0.0029     0.4447 N.pl3   
   5 C5             2.4725     1.3621     0.6556 C.2     
   6 C6             1.2795     2.0680     0.9194 C.2     
   7 C7             3.7023    -0.4210     0.2151 C.2     
   8 C8             4.5126     0.6954     0.2910 C.2     
   9 N9             3.7309     1.7588     0.5598 N.2     
  10 C10            5.9775     0.7186     0.1101 C.2     
  11 N11            4.1109    -1.7292    -0.0450 N.3     
  12 C12            2.9871    -2.6667     0.0815 C.3     
  13 C13            3.5012    -4.1010    -0.0586 C.3     
  14 C14            2.3307    -5.0774     0.0731 C.3     
  15 C15            6.6954     1.7211    -0.4653 C.2     
  16 C16            8.0483     1.3252    -0.4274 C.2     
  17 C17            8.0891     0.1152     0.1621 C.2     
  18 O18            6.8364    -0.2463     0.4912 O.3     
  19 C19            2.8448    -6.5117    -0.0670 C.3     
  20 O20            1.7516    -7.4237     0.0560 O.3     
  21 C21            2.0387    -8.7484    -0.0453 C.ar    
  22 C22            1.0253    -9.6887     0.0645 C.ar    
  23 C23            1.3195   -11.0358    -0.0388 C.ar    
  24 C24            2.6249   -11.4453    -0.2518 C.ar    
  25 C25            3.6365   -10.5078    -0.3615 C.ar    
  26 C26            3.3451    -9.1610    -0.2645 C.ar    
  27 Cl27           2.9928   -13.1370    -0.3808 Cl      
  28 Cl28           0.0519   -12.2139     0.0991 Cl      
  29 H29           -0.8204     1.9229     1.1570 H       
  30 H30           -0.8557    -0.5320     0.7729 H       
  31 H31            1.1998    -1.7279     0.3228 H       
  32 H32            1.3031     3.1347     1.0866 H       
  33 H33            4.5399    -1.7997    -0.9555 H       
  34 H34            2.5183    -2.5425     1.0577 H       
  35 H35            2.2557    -2.4649    -0.7011 H       
  36 H36            3.9699    -4.2252    -1.0348 H       
  37 H37            4.2326    -4.3028     0.7239 H       
  38 H38            1.8620    -4.9532     1.0493 H       
  39 H39            1.5993    -4.8756    -0.7094 H       
  40 H40            6.3045     2.6418    -0.8727 H       
  41 H41            8.8921     1.8862    -0.8012 H       
  42 H42            8.9807    -0.4664     0.3446 H       
  43 H43            3.3135    -6.6359    -1.0432 H       
  44 H44            3.5762    -6.7135     0.7156 H       
  45 H45            0.0072    -9.3691     0.2310 H       
  46 H46            4.6542   -10.8291    -0.5273 H       
  47 H47            4.1353    -8.4299    -0.3502 H       
@<TRIPOS>BOND
   1    1    2 1
   2    1    6 2
   3    1   29 1
   4    2    3 2
   5    2   30 1
   6    3    4 1
   7    3   31 1
   8    4    5 1
   9    4    7 1
  10    5    6 1
  11    5    9 2
  12    6   32 1
  13    7    8 2
  14    7   11 1
  15    8    9 1
  16    8   10 1
  17   10   15 2
  18   10   18 1
  19   11   12 1
  20   11   33 1
  21   12   13 1
  22   12   34 1
  23   12   35 1
  24   13   14 1
  25   13   36 1
  26   13   37 1
  27   14   19 1
  28   14   38 1
  29   14   39 1
  30   15   16 1
  31   15   40 1
  32   16   17 2
  33   16   41 1
  34   17   18 1
  35   17   42 1
  36   19   20 1
  37   19   43 1
  38   19   44 1
  39   20   21 1
  40   21   22 ar
  41   21   26 ar
  42   22   23 ar
  43   22   45 1
  44   23   24 ar
  45   23   28 1
  46   24   25 ar
  47   24   27 1
  48   25   26 ar
  49   25   46 1
  50   26   47 1

#	End of record

