#	Name: ASD06340091
#	Creating user name:	WinNT
#	Creation time:	15. 06. 2019 21:06

#	Modifying user name:	WinNT
#	Modification time:	15. 06. 2019 21:06

#	Program:	/corina/corina34_cracker 3.40 0067  02.08.2006

@<TRIPOS>MOLECULE
ASD06340091
  25   26    0    0    0
SMALL
NO_CHARGES


@<TRIPOS>ATOM
   1 S1            -0.0210     1.6939     0.0114 S.3     
   2 N2             0.0021    -0.0041     0.0020 N.am    
   3 C3             1.2962    -0.3594    -0.0122 C.2     
   4 N4             2.1856     0.6226    -0.0155 N.am    
   5 C5             1.6912     1.8721    -0.0040 C.2     
   6 O6             1.6365    -1.5276    -0.0214 O.2     
   7 O7             2.3224     2.9128    -0.0052 O.2     
   8 C8             3.6269     0.3610    -0.0302 C.3     
   9 C9            -1.1036    -0.8590     0.0084 C.ar    
  10 C10           -2.3257    -0.4205    -0.4857 C.ar    
  11 C11           -3.2923    -2.5519     0.0205 C.ar    
  12 C12           -0.9815    -2.1514     0.5036 C.ar    
  13 C13           -3.4159    -1.2680    -0.4784 C.ar    
  14 C14           -2.0758    -2.9936     0.5079 C.ar    
  15 C15           -4.4845    -3.4738     0.0274 C.3     
  16 H16            3.9749     0.3013    -1.0614 H       
  17 H17            4.1482     1.1691     0.4830 H       
  18 H18            3.8302    -0.5822     0.4770 H       
  19 H19           -2.4231     0.5823    -0.8749 H       
  20 H20           -0.0318    -2.4970     0.8843 H       
  21 H21           -4.3663    -0.9277    -0.8623 H       
  22 H22           -1.9828    -3.9969     0.8969 H       
  23 H23           -4.5152    -4.0349    -0.9066 H       
  24 H24           -4.4032    -4.1665     0.8650 H       
  25 H25           -5.3972    -2.8866     0.1287 H       
@<TRIPOS>BOND
   1    1    2 1
   2    1    5 1
   3    2    3 am
   4    2    9 1
   5    3    4 am
   6    3    6 2
   7    4    5 am
   8    4    8 1
   9    5    7 2
  10    8   16 1
  11    8   17 1
  12    8   18 1
  13    9   10 ar
  14    9   12 ar
  15   10   13 ar
  16   10   19 1
  17   11   13 ar
  18   11   14 ar
  19   11   15 1
  20   12   14 ar
  21   12   20 1
  22   13   21 1
  23   14   22 1
  24   15   23 1
  25   15   24 1
  26   15   25 1

#	End of record

