#	Name: ASD02408262
#	Creating user name:	WinNT
#	Creation time:	15. 06. 2019 20:21

#	Modifying user name:	WinNT
#	Modification time:	15. 06. 2019 20:21

#	Program:	/corina/corina34_cracker 3.40 0067  02.08.2006

@<TRIPOS>MOLECULE
ASD02408262
  48   51    0    0    0
SMALL
NO_CHARGES


@<TRIPOS>ATOM
   1 C1            -0.0169     1.3565     0.0601 C.2     
   2 C2             0.0016    -0.0044     0.0502 C.2     
   3 N3            -1.1510    -0.7121     0.0092 N.pl3   
   4 N4            -2.3109    -0.1675    -0.0220 N.2     
   5 C5            -2.4723     1.1403    -0.0165 C.2     
   6 C6            -1.2809     2.0009     0.0319 C.2     
   7 C7            -1.0728    -2.1084     0.0000 C.ar    
   8 C8            -2.2287    -2.8714     0.1118 C.ar    
   9 C9            -2.1478    -4.2497     0.1019 C.ar    
  10 C10           -0.9180    -4.8710    -0.0187 C.ar    
  11 C11            0.2343    -4.1148    -0.1296 C.ar    
  12 C12            0.1601    -2.7357    -0.1266 C.ar    
  13 C13           -3.8231     1.7299    -0.0532 C.2     
  14 C14           -4.5511     2.0713    -1.1799 C.2     
  15 N15           -5.7273     2.5742    -0.7609 N.2     
  16 C16           -5.7674     2.5634     0.5421 C.2     
  17 N17           -4.6168     2.0463     1.0259 N.pl3   
  18 C18           -4.1160     1.9129    -2.5868 C.ar    
  19 O19           -1.3751     3.2196     0.0394 O.2     
  20 C20           -5.0446     1.5838    -3.5742 C.ar    
  21 C21           -2.7770     2.0979    -2.9307 C.ar    
  22 C22           -2.3778     1.9494    -4.2431 C.ar    
  23 C23           -3.3028     1.6182    -5.2172 C.ar    
  24 C24           -4.6332     1.4381    -4.8831 C.ar    
  25 O25            1.1374     2.0747     0.1012 O.3     
  26 C26            2.3603     1.3361     0.1333 C.3     
  27 C27           -3.4009    -5.0780     0.2230 C.3     
  28 F28           -3.9169    -5.3324    -1.0523 F       
  29 F29           -3.0999    -6.2895     0.8544 F       
  30 F30           -4.3494    -4.3810     0.9792 F       
  31 C31           -4.2736     1.8644     2.4384 C.3     
  32 H32            0.9472    -0.5255     0.0751 H       
  33 H33           -3.1892    -2.3868     0.2066 H       
  34 H34           -0.8575    -5.9493    -0.0258 H       
  35 H35            1.1931    -4.6032    -0.2232 H       
  36 H36            1.0605    -2.1456    -0.2136 H       
  37 H37           -6.5951     2.9107     1.1427 H       
  38 H38           -6.0835     1.4430    -3.3146 H       
  39 H39           -2.0541     2.3572    -2.1713 H       
  40 H40           -1.3413     2.0924    -4.5107 H       
  41 H41           -2.9857     1.5037    -6.2432 H       
  42 H42           -5.3506     1.1792    -5.6478 H       
  43 H43            3.2019     2.0280     0.1646 H       
  44 H44            2.3784     0.7017     1.0195 H       
  45 H45            2.4333     0.7153    -0.7596 H       
  46 H46           -4.6028     0.8790     2.7683 H       
  47 H47           -3.1940     1.9475     2.5636 H       
  48 H48           -4.7686     2.6312     3.0343 H       
@<TRIPOS>BOND
   1    1    2 2
   2    1   25 1
   3    1    6 1
   4    2    3 1
   5    2   32 1
   6    3    4 1
   7    3    7 1
   8    4    5 2
   9    5    6 1
  10    5   13 1
  11    6   19 2
  12    7    8 ar
  13    7   12 ar
  14    8    9 ar
  15    8   33 1
  16    9   10 ar
  17    9   27 1
  18   10   11 ar
  19   10   34 1
  20   11   12 ar
  21   11   35 1
  22   12   36 1
  23   13   14 2
  24   13   17 1
  25   14   15 1
  26   14   18 1
  27   15   16 2
  28   16   17 1
  29   16   37 1
  30   17   31 1
  31   18   20 ar
  32   18   21 ar
  33   20   24 ar
  34   20   38 1
  35   21   22 ar
  36   21   39 1
  37   22   23 ar
  38   22   40 1
  39   23   24 ar
  40   23   41 1
  41   24   42 1
  42   25   26 1
  43   26   43 1
  44   26   44 1
  45   26   45 1
  46   27   28 1
  47   27   29 1
  48   27   30 1
  49   31   46 1
  50   31   47 1
  51   31   48 1

#	End of record

