#	Name: ASD06660114
#	Creating user name:	WinNT
#	Creation time:	15. 06. 2019 21:08

#	Modifying user name:	WinNT
#	Modification time:	15. 06. 2019 21:08

#	Program:	/corina/corina34_cracker 3.40 0067  02.08.2006

@<TRIPOS>MOLECULE
ASD06660114
  79   83    0    0    0
SMALL
NO_CHARGES


@<TRIPOS>ATOM
   1 C1             0.0079     1.6447     0.9696 C.2     
   2 C2            -0.0197     0.2513     0.3964 C.3     
   3 C3            -1.0906     0.1692    -0.6933 C.3     
   4 O4             1.0173     2.3054     0.9031 O.2     
   5 O5            -1.0906     2.1540     1.5490 O.3     
   6 N6             1.2892    -0.0655    -0.1804 N.am    
   7 C7             2.3160    -0.4041     0.6243 C.2     
   8 C8             3.6579    -0.6351     0.0517 C.ar    
   9 C9             4.0803    -1.9358    -0.2364 C.ar    
  10 C10            5.3304    -2.1508    -0.7697 C.ar    
  11 C11            6.1775    -1.0689    -1.0227 C.ar    
  12 C12            5.7555     0.2312    -0.7348 C.ar    
  13 C13            4.5028     0.4471    -0.2072 C.ar    
  14 O14            2.1378    -0.5195     1.8213 O.2     
  15 C15            4.0451     1.8502     0.0977 C.3     
  16 C16            7.5205    -1.3001    -1.5946 C.2     
  17 N17            8.0328    -2.4698    -1.9082 N.2     
  18 C18            9.2638    -2.2945    -2.3983 C.2     
  19 C19            9.5393    -0.9728    -2.3948 C.2     
  20 N20            8.4388    -0.3356    -1.8931 N.pl3   
  21 C21            3.1670    -3.1028     0.0374 C.3     
  22 C22            2.2461    -3.3227    -1.1644 C.3     
  23 C23           -1.2098    -1.2540    -1.1743 C.ar    
  24 C24           -2.0709    -2.1279    -0.5363 C.ar    
  25 C25           -2.1826    -3.4329    -0.9745 C.ar    
  26 C26           -1.4286    -3.8672    -2.0574 C.ar    
  27 C27           -0.5646    -2.9867    -2.6959 C.ar    
  28 C28           -0.4620    -1.6815    -2.2561 C.ar    
  29 N29           -1.5388    -5.1864    -2.5028 N.3     
  30 C30           -0.6578    -5.4289    -3.6524 C.3     
  31 C31           -0.9106    -6.8343    -4.2029 C.3     
  32 C32           -0.6403    -7.8644    -3.1027 C.3     
  33 C33           -1.5358    -7.5603    -1.8985 C.3     
  34 C34           -1.2649    -6.1338    -1.4148 C.3     
  35 C35           -0.9451    -9.2463    -3.6207 C.2     
  36 N36           -0.7790   -10.3179    -2.8203 N.am    
  37 O37           -1.3397    -9.3942    -4.7577 O.2     
  38 C38           -1.0585   -11.5848    -3.2952 C.2     
  39 N39           -1.4807   -11.8056    -4.4956 N.2     
  40 C40           -1.6869   -13.2459    -4.7017 C.3     
  41 C41           -1.2950   -13.8756    -3.3501 C.3     
  42 N42           -0.9059   -12.7118    -2.5361 N.pl3   
  43 H43           -0.2507    -0.4624     1.1872 H       
  44 H44           -2.0477     0.4970    -0.2876 H       
  45 H45           -0.8101     0.8123    -1.5275 H       
  46 H46           -1.0246     3.0518     1.9022 H       
  47 H47            1.4168    -0.0316    -1.1413 H       
  48 H48            5.6569    -3.1558    -0.9924 H       
  49 H49            6.4105     1.0673    -0.9305 H       
  50 H50            4.3254     2.1101     1.1184 H       
  51 H51            4.5170     2.5452    -0.5969 H       
  52 H52            2.9619     1.9101    -0.0081 H       
  53 H53            9.9257    -3.0771    -2.7387 H       
  54 H54           10.4543    -0.5067    -2.7294 H       
  55 H55            8.3316     0.6207    -1.7707 H       
  56 H56            3.7637    -3.9992     0.2068 H       
  57 H57            2.5659    -2.8939     0.9224 H       
  58 H58            1.7222    -2.3951    -1.3952 H       
  59 H59            2.8398    -3.6287    -2.0259 H       
  60 H60            1.5203    -4.1009    -0.9284 H       
  61 H61           -2.6565    -1.7897     0.3057 H       
  62 H62           -2.8550    -4.1150    -0.4756 H       
  63 H63            0.0230    -3.3211    -3.5381 H       
  64 H64            0.2061    -0.9951    -2.7551 H       
  65 H65           -0.8632    -4.6923    -4.4291 H       
  66 H66            0.3822    -5.3439    -3.3373 H       
  67 H67           -1.9468    -6.9157    -4.5310 H       
  68 H68           -0.2456    -7.0198    -5.0464 H       
  69 H69            0.4059    -7.8097    -2.8016 H       
  70 H70           -2.5819    -7.6531    -2.1903 H       
  71 H71           -1.3175    -8.2644    -1.0956 H       
  72 H72           -0.2221    -6.0455    -1.1102 H       
  73 H73           -1.9112    -5.9092    -0.5663 H       
  74 H74           -0.4633   -10.1996    -1.9108 H       
  75 H75           -2.7320   -13.4534    -4.9314 H       
  76 H76           -1.0393   -13.6146    -5.4972 H       
  77 H77           -2.1453   -14.3932    -2.9060 H       
  78 H78           -0.4511   -14.5545    -3.4723 H       
  79 H79           -0.5965   -12.7398    -1.6172 H       
@<TRIPOS>BOND
   1    1    2 1
   2    1    4 2
   3    1    5 1
   4    2    3 1
   5    2    6 1
   6    2   43 1
   7    3   23 1
   8    3   44 1
   9    3   45 1
  10    5   46 1
  11    6    7 am
  12    6   47 1
  13    7    8 1
  14    7   14 2
  15    8    9 ar
  16    8   13 ar
  17    9   10 ar
  18    9   21 1
  19   10   11 ar
  20   10   48 1
  21   11   12 ar
  22   11   16 1
  23   12   13 ar
  24   12   49 1
  25   13   15 1
  26   15   50 1
  27   15   51 1
  28   15   52 1
  29   16   17 2
  30   16   20 1
  31   17   18 1
  32   18   19 2
  33   18   53 1
  34   19   20 1
  35   19   54 1
  36   20   55 1
  37   21   22 1
  38   21   56 1
  39   21   57 1
  40   22   58 1
  41   22   59 1
  42   22   60 1
  43   23   24 ar
  44   23   28 ar
  45   24   25 ar
  46   24   61 1
  47   25   26 ar
  48   25   62 1
  49   26   27 ar
  50   26   29 1
  51   27   28 ar
  52   27   63 1
  53   28   64 1
  54   29   30 1
  55   29   34 1
  56   30   31 1
  57   30   65 1
  58   30   66 1
  59   31   32 1
  60   31   67 1
  61   31   68 1
  62   32   33 1
  63   32   35 1
  64   32   69 1
  65   33   34 1
  66   33   70 1
  67   33   71 1
  68   34   72 1
  69   34   73 1
  70   35   36 am
  71   35   37 2
  72   36   38 1
  73   36   74 1
  74   38   39 2
  75   38   42 1
  76   39   40 1
  77   40   41 1
  78   40   75 1
  79   40   76 1
  80   41   42 1
  81   41   77 1
  82   41   78 1
  83   42   79 1

#	End of record

