#	Name: ASD01880830
#	Creating user name:	WinNT
#	Creation time:	15. 06. 2019 19:41

#	Modifying user name:	WinNT
#	Modification time:	15. 06. 2019 19:41

#	Program:	/corina/corina34_cracker 3.40 0067  02.08.2006

@<TRIPOS>MOLECULE
ASD01880830
  56   58    0    0    0
SMALL
NO_CHARGES


@<TRIPOS>ATOM
   1 N1            -0.0158     1.3136     0.0093 N.ar    
   2 C2             0.0021    -0.0041     0.0020 C.ar    
   3 N3             1.1321    -0.6824    -0.0120 N.ar    
   4 C4             2.2981    -0.0570    -0.0197 C.ar    
   5 C5             2.3199     1.3290    -0.0130 C.ar    
   6 C6             1.1114     2.0071     0.0022 C.ar    
   7 C7             3.6262     2.0803    -0.0209 C.3     
   8 O8             4.0270     2.3245    -1.3706 O.3     
   9 C9             1.0812     3.5137     0.0096 C.3     
  10 C10            5.1917     2.9962    -1.5555 C.ar    
  11 C11            5.6406     3.2675    -2.8444 C.ar    
  12 C12            6.8186     3.9473    -3.0300 C.ar    
  13 C13            7.5727     4.3703    -1.9303 C.ar    
  14 C14            7.1171     4.0955    -0.6379 C.ar    
  15 C15            5.9321     3.4174    -0.4574 C.ar    
  16 C16            7.5713     4.3929    -4.2590 C.3     
  17 N17            8.7743     5.0803    -3.7758 N.am    
  18 C18            8.7710     5.0650    -2.4319 C.2     
  19 O19            9.6342     5.5552    -1.7298 O.2     
  20 C20            7.5607     5.9926     0.8962 C.3     
  21 C21            7.9191     4.5445     0.5563 C.3     
  22 C22            4.0074    -1.0994    -1.4829 C.3     
  23 C23            3.5851    -0.8409    -0.0352 C.3     
  24 C24            9.4496     7.1440    -4.9012 C.3     
  25 C25            9.8088     5.6837    -4.6195 C.3     
  26 C26           -1.7602    -1.0018    -1.4291 C.3     
  27 C27           -1.3043    -0.7553     0.0105 C.3     
  28 H28            3.5022     3.0303     0.4989 H       
  29 H29            4.3894     1.4874     0.4831 H       
  30 H30            1.0637     3.8818    -1.0162 H       
  31 H31            0.1893     3.8567     0.5340 H       
  32 H32            1.9688     3.8925     0.5165 H       
  33 H33            5.0631     2.9433    -3.6975 H       
  34 H34            5.5804     3.2058     0.5416 H       
  35 H35            7.8503     3.5284    -4.8614 H       
  36 H36            6.9588     5.0773    -4.8459 H       
  37 H37            7.7884     6.6329     0.0440 H       
  38 H38            6.4974     6.0591     1.1268 H       
  39 H39            8.1408     6.3173     1.7600 H       
  40 H40            7.6914     3.9042     1.4085 H       
  41 H41            8.9824     4.4779     0.3257 H       
  42 H42            3.2295    -1.6681    -1.9923 H       
  43 H43            4.1554    -0.1479    -1.9937 H       
  44 H44            4.9383    -1.6664    -1.4941 H       
  45 H45            4.3631    -0.2722     0.4741 H       
  46 H46            3.4372    -1.7924     0.4755 H       
  47 H47            8.4895     7.1894    -5.4152 H       
  48 H48            9.3841     7.6901    -3.9601 H       
  49 H49           10.2194     7.5930    -5.5289 H       
  50 H50           10.7690     5.6384    -4.1055 H       
  51 H51            9.8743     5.1377    -5.5606 H       
  52 H52           -1.8937    -0.0465    -1.9366 H       
  53 H53           -1.0065    -1.5894    -1.9533 H       
  54 H54           -2.7050    -1.5452    -1.4230 H       
  55 H55           -1.1707    -1.7107     0.5179 H       
  56 H56           -2.0580    -0.1677     0.5347 H       
@<TRIPOS>BOND
   1    1    2 ar
   2    1    6 ar
   3    2    3 ar
   4    2   27 1
   5    3    4 ar
   6    4    5 ar
   7    4   23 1
   8    5    6 ar
   9    5    7 1
  10    6    9 1
  11    7    8 1
  12    7   28 1
  13    7   29 1
  14    8   10 1
  15    9   30 1
  16    9   31 1
  17    9   32 1
  18   10   11 ar
  19   10   15 ar
  20   11   12 ar
  21   11   33 1
  22   12   13 ar
  23   12   16 1
  24   13   14 ar
  25   13   18 1
  26   14   15 ar
  27   14   21 1
  28   15   34 1
  29   16   17 1
  30   16   35 1
  31   16   36 1
  32   17   18 am
  33   17   25 1
  34   18   19 2
  35   20   21 1
  36   20   37 1
  37   20   38 1
  38   20   39 1
  39   21   40 1
  40   21   41 1
  41   22   23 1
  42   22   42 1
  43   22   43 1
  44   22   44 1
  45   23   45 1
  46   23   46 1
  47   24   25 1
  48   24   47 1
  49   24   48 1
  50   24   49 1
  51   25   50 1
  52   25   51 1
  53   26   27 1
  54   26   52 1
  55   26   53 1
  56   26   54 1
  57   27   55 1
  58   27   56 1

#	End of record

