#	Name: ASD01913539
#	Creating user name:	WinNT
#	Creation time:	15. 06. 2019 20:01

#	Modifying user name:	WinNT
#	Modification time:	15. 06. 2019 20:01

#	Program:	/corina/corina34_cracker 3.40 0067  02.08.2006

@<TRIPOS>MOLECULE
ASD01913539
  34   36    0    0    0
SMALL
NO_CHARGES


@<TRIPOS>ATOM
   1 C1             0.8695     0.2447    -0.9902 C.ar    
   2 C2             0.1067    -0.0148     0.1440 C.ar    
   3 C3             0.5517     0.4455     1.3751 C.ar    
   4 N4             1.6801     1.1197     1.4732 N.ar    
   5 C5             2.4263     1.3824     0.4181 C.ar    
   6 C6             2.0492     0.9564    -0.8416 C.ar    
   7 C7            -0.9868    -2.0586    -0.0767 C.ar    
   8 C8             0.2440    -2.7079    -0.1095 C.ar    
   9 C9             0.2794    -4.0856    -0.2313 C.ar    
  10 N10           -0.8309    -4.7867    -0.3161 N.ar    
  11 C11           -2.0269    -4.2091    -0.2889 C.ar    
  12 C12           -2.1439    -2.8285    -0.1686 C.ar    
  13 C13           -3.2471    -5.0432    -0.3878 C.2     
  14 N14           -3.1408    -6.3817    -0.5047 N.am    
  15 O15           -1.0578    -0.7088     0.0474 O.3     
  16 C16           -4.2867    -7.1758    -0.4918 C.ar    
  17 O17           -4.3439    -4.5207    -0.3636 O.2     
  18 C18           -4.1644    -8.5604    -0.4954 C.ar    
  19 C19           -5.3092    -9.3378    -0.4826 C.ar    
  20 C20           -6.5435    -8.6994    -0.4663 C.ar    
  21 C21           -6.5898    -7.3169    -0.4636 C.ar    
  22 N22           -5.4801    -6.6037    -0.4707 N.ar    
  23 F23           -7.6856    -9.4210    -0.4538 F       
  24 H24            0.5524    -0.1040    -1.9619 H       
  25 H25           -0.0327     0.2496     2.2620 H       
  26 H26            3.3443     1.9381     0.5398 H       
  27 H27            2.6667     1.1758    -1.7001 H       
  28 H28            1.1615    -2.1423    -0.0410 H       
  29 H29            1.2324    -4.5931    -0.2574 H       
  30 H30           -3.1170    -2.3605    -0.1467 H       
  31 H31           -2.2671    -6.7926    -0.5977 H       
  32 H32           -3.1887    -9.0234    -0.5086 H       
  33 H33           -5.2449   -10.4159    -0.4854 H       
  34 H34           -7.5461    -6.8153    -0.4514 H       
@<TRIPOS>BOND
   1    1    2 ar
   2    1    6 ar
   3    1   24 1
   4    2    3 ar
   5    2   15 1
   6    3    4 ar
   7    3   25 1
   8    4    5 ar
   9    5    6 ar
  10    5   26 1
  11    6   27 1
  12    7    8 ar
  13    7   12 ar
  14    7   15 1
  15    8    9 ar
  16    8   28 1
  17    9   10 ar
  18    9   29 1
  19   10   11 ar
  20   11   12 ar
  21   11   13 1
  22   12   30 1
  23   13   14 am
  24   13   17 2
  25   14   16 1
  26   14   31 1
  27   16   18 ar
  28   16   22 ar
  29   18   19 ar
  30   18   32 1
  31   19   20 ar
  32   19   33 1
  33   20   21 ar
  34   20   23 1
  35   21   22 ar
  36   21   34 1

#	End of record

