#	Name: ASD01478116
#	Creating user name:	WinNT
#	Creation time:	15. 06. 2019 19:21

#	Modifying user name:	WinNT
#	Modification time:	15. 06. 2019 19:21

#	Program:	/corina/corina34_cracker 3.40 0067  02.08.2006

@<TRIPOS>MOLECULE
ASD01478116
  37   39    0    0    0
SMALL
NO_CHARGES


@<TRIPOS>ATOM
   1 C1             0.0367     1.4170    -0.5695 C.3     
   2 C2             0.0170    -0.0515    -0.1001 C.3     
   3 C3             1.1290    -0.1429     0.9559 C.3     
   4 C4             2.1148     0.9994     0.6442 C.3     
   5 C5             1.5576     1.7348    -0.5931 C.3     
   6 C6            -1.8542     1.8612     0.8551 C.3     
   7 C7            -1.7586     0.4476     1.4421 C.3     
   8 O8            -0.5527     2.2595     0.4239 O.3     
   9 O9            -1.2416    -0.4213     0.4316 O.3     
  10 O10            3.4290     0.4563     0.3504 O.3     
  11 C11            4.4901     1.2232     0.6607 C.2     
  12 O12            4.3232     2.3161     1.1631 O.2     
  13 O13            5.7363     0.7790     0.4143 O.3     
  14 C14            6.7649     1.5536     0.8501 C.ar    
  15 C15            7.1038     1.5661     2.1952 C.ar    
  16 C16            8.1499     2.3537     2.6355 C.ar    
  17 C17            8.8585     3.1295     1.7368 C.ar    
  18 C18            8.5227     3.1188     0.3956 C.ar    
  19 C19            7.4811     2.3284    -0.0505 C.ar    
  20 N20            9.9783     3.9733     2.2114 N.pl3   
  21 O21           10.2747     3.9838     3.3927 O.2     
  22 O22           10.6033     4.6570     1.4206 O.2     
  23 H23           -0.4258     1.5413    -1.5486 H       
  24 H24            0.2551    -0.7060    -0.9386 H       
  25 H25            0.7095    -0.0138     1.9536 H       
  26 H26            1.6358    -1.1052     0.8838 H       
  27 H27            2.1734     1.6837     1.4906 H       
  28 H28            2.0142     1.3487    -1.5044 H       
  29 H29            1.7247     2.8084    -0.5064 H       
  30 H30           -2.5379     1.8605     0.0062 H       
  31 H31           -2.2156     2.5514     1.6174 H       
  32 H32           -1.0887     0.4511     2.3020 H       
  33 H33           -2.7484     0.1085     1.7476 H       
  34 H34            6.5501     0.9609     2.8977 H       
  35 H35            8.4141     2.3638     3.6827 H       
  36 H36            9.0775     3.7258    -0.3044 H       
  37 H37            7.2218     2.3173    -1.0988 H       
@<TRIPOS>BOND
   1    1    2 1
   2    1    5 1
   3    1    8 1
   4    1   23 1
   5    2    3 1
   6    2    9 1
   7    2   24 1
   8    3    4 1
   9    3   25 1
  10    3   26 1
  11    4    5 1
  12    4   10 1
  13    4   27 1
  14    5   28 1
  15    5   29 1
  16    6    7 1
  17    6    8 1
  18    6   30 1
  19    6   31 1
  20    7    9 1
  21    7   32 1
  22    7   33 1
  23   10   11 1
  24   11   12 2
  25   11   13 1
  26   13   14 1
  27   14   15 ar
  28   14   19 ar
  29   15   16 ar
  30   15   34 1
  31   16   17 ar
  32   16   35 1
  33   17   18 ar
  34   17   20 1
  35   18   19 ar
  36   18   36 1
  37   19   37 1
  38   20   21 2
  39   20   22 2

#	End of record

