#	Name: ASD01916407
#	Creating user name:	WinNT
#	Creation time:	15. 06. 2019 20:07

#	Modifying user name:	WinNT
#	Modification time:	15. 06. 2019 20:07

#	Program:	/corina/corina34_cracker 3.40 0067  02.08.2006

@<TRIPOS>MOLECULE
ASD01916407
  42   44    0    0    0
SMALL
NO_CHARGES


@<TRIPOS>ATOM
   1 C1            -0.0167     1.3789     0.0096 C.ar    
   2 C2             0.0021    -0.0041     0.0020 C.ar    
   3 C3             1.2201    -0.6688    -0.0132 C.ar    
   4 C4             2.3827     0.0819    -0.0203 C.ar    
   5 C5             2.2904     1.4738    -0.0120 C.ar    
   6 N6             1.1040     2.0708     0.0026 N.ar    
   7 C7             3.4840     2.2650    -0.0192 C.1     
   8 C8             4.4625     2.9137    -0.0251 C.1     
   9 C9             5.6893     3.7271    -0.0325 C.3     
  10 C10            5.3174     5.2112    -0.0209 C.3     
  11 N11            6.5385     6.0206    -0.0283 N.pl3   
  12 N12            7.5912     5.9267     0.8900 N.2     
  13 C13            8.5039     6.8041     0.5665 C.2     
  14 C14            8.0612     7.4939    -0.5789 C.2     
  15 C15            6.8450     6.9807    -0.9239 C.2     
  16 C16            8.7886     8.5780    -1.2860 C.ar    
  17 C17            9.2987     9.6595    -0.5710 C.ar    
  18 C18           10.1457    10.5989    -2.6044 C.ar    
  19 C19            8.9684     8.5145    -2.6657 C.ar    
  20 C20            9.9745    10.6642    -1.2332 C.ar    
  21 C21            9.6459     9.5250    -3.3182 C.ar    
  22 C22            9.1125     9.7322     0.9226 C.3     
  23 C23           -1.3377     2.1041     0.0198 C.3     
  24 F24           -1.7402     2.3213     1.3419 F       
  25 H25           -0.9229    -0.5616     0.0082 H       
  26 H26            1.2599    -1.7481    -0.0191 H       
  27 H27            3.3477    -0.4030    -0.0318 H       
  28 H28            6.2846     3.4948     0.8506 H       
  29 H29            6.2675     3.5044    -0.9292 H       
  30 H30            4.7222     5.4434    -0.9040 H       
  31 H31            4.7392     5.4339     0.8758 H       
  32 H32            9.4353     6.9714     1.0870 H       
  33 H33            6.2367     7.2895    -1.7612 H       
  34 H34           10.6752    11.3873    -3.1187 H       
  35 H35            8.5788     7.6762    -3.2241 H       
  36 H36           10.3700    11.5032    -0.6799 H       
  37 H37            9.7823     9.4788    -4.3886 H       
  38 H38            9.9517     9.2436     1.4176 H       
  39 H39            9.0657    10.7762     1.2325 H       
  40 H40            8.1854     9.2295     1.1981 H       
  41 H41           -1.2303     3.0618    -0.4893 H       
  42 H42           -2.0869     1.5015    -0.4938 H       
@<TRIPOS>BOND
   1    1    2 ar
   2    1    6 ar
   3    1   23 1
   4    2    3 ar
   5    2   25 1
   6    3    4 ar
   7    3   26 1
   8    4    5 ar
   9    4   27 1
  10    5    6 ar
  11    5    7 1
  12    7    8 3
  13    8    9 1
  14    9   10 1
  15    9   28 1
  16    9   29 1
  17   10   11 1
  18   10   30 1
  19   10   31 1
  20   11   12 1
  21   11   15 1
  22   12   13 2
  23   13   14 1
  24   13   32 1
  25   14   15 2
  26   14   16 1
  27   15   33 1
  28   16   17 ar
  29   16   19 ar
  30   17   20 ar
  31   17   22 1
  32   18   20 ar
  33   18   21 ar
  34   18   34 1
  35   19   21 ar
  36   19   35 1
  37   20   36 1
  38   21   37 1
  39   22   38 1
  40   22   39 1
  41   22   40 1
  42   23   24 1
  43   23   41 1
  44   23   42 1

#	End of record

