#	Name: ASD01230365
#	Creating user name:	WinNT
#	Creation time:	15. 06. 2019 19:14

#	Modifying user name:	WinNT
#	Modification time:	15. 06. 2019 19:14

#	Program:	/corina/corina34_cracker 3.40 0067  02.08.2006

@<TRIPOS>MOLECULE
ASD01230365
  56   58    0    0    0
SMALL
NO_CHARGES


@<TRIPOS>ATOM
   1 S1            -0.0203     1.6432     0.0111 S.o2    
   2 N2             0.0021    -0.0041     0.0020 N.am    
   3 C3             1.0582    -0.7115     0.0766 C.2     
   4 N4             2.3239    -0.2014     0.2156 N.pl3   
   5 C5             2.5547     1.1284     0.7685 C.3     
   6 C6             1.7187     2.1517    -0.0028 C.3     
   7 C7             0.9691    -2.2282     0.0263 C.3     
   8 C8             2.0432    -2.7791     0.9676 C.3     
   9 C9             3.4382    -2.3754     0.5096 C.3     
  10 C10            3.4443    -1.0396    -0.2239 C.3     
  11 C11           -0.3942    -2.6772     0.4854 C.ar    
  12 C12           -1.2061    -3.4011    -0.3681 C.ar    
  13 C13           -2.4563    -3.8138     0.0505 C.ar    
  14 C14           -2.8969    -3.5014     1.3283 C.ar    
  15 C15           -2.0803    -2.7749     2.1828 C.ar    
  16 C16           -0.8287    -2.3694     1.7614 C.ar    
  17 O17           -4.1265    -3.9059     1.7422 O.3     
  18 Si18          -4.1366    -5.3715     2.4578 Si      
  19 C19           -3.5114    -6.6525     1.2583 C.3     
  20 C20           -3.0349    -5.3370     3.9597 C.3     
  21 C21           -5.8753    -5.7991     2.9728 C.3     
  22 C22           -6.7801    -5.8275     1.7393 C.3     
  23 C23           -5.8848    -7.1739     3.6440 C.3     
  24 C24           -6.3887    -4.7470     3.9579 C.3     
  25 O25           -0.6472     1.9881    -1.2166 O.2     
  26 O26           -0.6237     1.9749     1.2541 O.2     
  27 H27            2.2653     1.1405     1.8193 H       
  28 H28            3.6113     1.3809     0.6793 H       
  29 H29            2.0726     2.2083    -1.0322 H       
  30 H30            1.8152     3.1296     0.4690 H       
  31 H31            1.1525    -2.5769    -0.9900 H       
  32 H32            1.8709    -2.3915     1.9717 H       
  33 H33            1.9753    -3.8668     0.9892 H       
  34 H34            4.0887    -2.3026     1.3812 H       
  35 H35            3.8279    -3.1455    -0.1561 H       
  36 H36            3.3602    -1.2183    -1.2958 H       
  37 H37            4.3816    -0.5221    -0.0194 H       
  38 H38           -0.8629    -3.6438    -1.3629 H       
  39 H39           -3.0903    -4.3790    -0.6167 H       
  40 H40           -2.4210    -2.5304     3.1780 H       
  41 H41           -0.1907    -1.8079     2.4279 H       
  42 H42           -2.4942    -6.4024     0.9570 H       
  43 H43           -3.5182    -7.6320     1.7365 H       
  44 H44           -4.1561    -6.6728     0.3796 H       
  45 H45           -3.4007    -4.5874     4.6615 H       
  46 H46           -3.0417    -6.3164     4.4379 H       
  47 H47           -2.0176    -5.0868     3.6584 H       
  48 H48           -6.4143    -6.5770     1.0375 H       
  49 H49           -7.7973    -6.0776     2.0406 H       
  50 H50           -6.7733    -4.8480     1.2611 H       
  51 H51           -5.2402    -7.1537     4.5227 H       
  52 H52           -6.9020    -7.4241     3.9453 H       
  53 H53           -5.5190    -7.9235     2.9422 H       
  54 H54           -6.3819    -3.7675     3.4796 H       
  55 H55           -7.4059    -4.9972     4.2591 H       
  56 H56           -5.7441    -4.7268     4.8366 H       
@<TRIPOS>BOND
   1    1    2 am
   2    1    6 1
   3    1   25 2
   4    1   26 2
   5    2    3 2
   6    3    4 1
   7    3    7 1
   8    4    5 1
   9    4   10 1
  10    5    6 1
  11    5   27 1
  12    5   28 1
  13    6   29 1
  14    6   30 1
  15    7    8 1
  16    7   11 1
  17    7   31 1
  18    8    9 1
  19    8   32 1
  20    8   33 1
  21    9   10 1
  22    9   34 1
  23    9   35 1
  24   10   36 1
  25   10   37 1
  26   11   12 ar
  27   11   16 ar
  28   12   13 ar
  29   12   38 1
  30   13   14 ar
  31   13   39 1
  32   14   15 ar
  33   14   17 1
  34   15   16 ar
  35   15   40 1
  36   16   41 1
  37   17   18 1
  38   18   19 1
  39   18   20 1
  40   18   21 1
  41   19   42 1
  42   19   43 1
  43   19   44 1
  44   20   45 1
  45   20   46 1
  46   20   47 1
  47   21   22 1
  48   21   24 1
  49   21   23 1
  50   22   48 1
  51   22   49 1
  52   22   50 1
  53   23   51 1
  54   23   52 1
  55   23   53 1
  56   24   54 1
  57   24   55 1
  58   24   56 1

#	End of record

