#	Name: ASD09116201
#	Creating user name:	WinNT
#	Creation time:	15. 06. 2019 21:21

#	Modifying user name:	WinNT
#	Modification time:	15. 06. 2019 21:21

#	Program:	/corina/corina34_cracker 3.40 0067  02.08.2006

@<TRIPOS>MOLECULE
ASD09116201
  77   84    0    0    0
SMALL
NO_CHARGES


@<TRIPOS>ATOM
   1 N1            -0.5401     3.7125     0.3487 N.2     
   2 N2            -1.1091     4.9351     0.7400 N.pl3   
   3 C3             0.7585     3.8909     0.3061 C.2     
   4 N4             1.0366     5.1545     0.6480 N.2     
   5 C5            -0.0803     5.7978     0.9129 C.2     
   6 N6             1.6984     2.9200    -0.0395 N.pl3   
   7 C7             3.0513     3.2642    -0.1539 C.ar    
   8 C8             4.0392     2.3398     0.1512 C.ar    
   9 C9             5.7033     3.8586    -0.3511 C.ar    
  10 C10            4.7689     4.8346    -0.6797 C.ar    
  11 C11            3.4215     4.5383    -0.5814 C.ar    
  12 C12           -2.4671     5.2074     0.9153 C.ar    
  13 N13           -2.8478     6.1824     1.7272 N.ar    
  14 N14           -4.0846     6.4672     1.9312 N.ar    
  15 C15           -5.0582     5.7959     1.3374 C.ar    
  16 C16           -4.7510     4.7633     0.4467 C.ar    
  17 C17           -3.4246     4.4553     0.2299 C.ar    
  18 C18           -6.4846     6.0861     1.6121 C.ar    
  19 C19           -7.3402     5.0284     1.9241 C.ar    
  20 C20           -6.7834     3.6350     2.0280 C.3     
  21 C21           -6.5327     3.0313     0.6488 C.3     
  22 C22           -5.8568     4.0450    -0.2706 C.3     
  23 C23           -6.9757     7.3858     1.5589 C.ar    
  24 C24           -8.3160     7.6206     1.7977 C.ar    
  25 C25           -9.1647     6.5673     2.0861 C.ar    
  26 C26           -8.6781     5.2729     2.1483 C.ar    
  27 N27           -0.1846     7.1206     1.2986 N.pl3   
  28 N28            5.3157     2.6570     0.0462 N.ar    
  29 N29            7.0627     4.1467    -0.4472 N.3     
  30 C30            7.8758     2.9865    -0.0568 C.3     
  31 C31            9.3576     3.3167    -0.2517 C.3     
  32 N32            9.7045     4.4948     0.5553 N.3     
  33 C33            8.8914     5.6550     0.1650 C.3     
  34 C34            7.4096     5.3248     0.3598 C.3     
  35 C35           11.1381     4.7987     0.4540 C.3     
  36 C36           11.4908     6.0289     1.3210 C.3     
  37 C37           11.9842     3.6359     1.0570 C.3     
  38 C38           12.5167     5.4936     2.3661 C.3     
  39 C39           11.6747     4.5775     3.3058 C.3     
  40 C40           11.3220     3.3472     2.4389 C.3     
  41 C41           13.2692     4.4160     1.5084 C.3     
  42 H42            1.4151     2.0063    -0.2005 H       
  43 H43            3.7605     1.3491     0.4787 H       
  44 H44            5.0913     5.8133    -1.0030 H       
  45 H45            2.6737     5.2767    -0.8303 H       
  46 H46           -3.1368     3.6570    -0.4382 H       
  47 H47           -5.8438     3.6667     2.5796 H       
  48 H48           -7.4919     3.0073     2.5686 H       
  49 H49           -5.8911     2.1562     0.7514 H       
  50 H50           -7.4841     2.7286     0.2113 H       
  51 H51           -6.5960     4.7713    -0.6084 H       
  52 H52           -5.4446     3.5253    -1.1356 H       
  53 H53           -6.3127     8.2078     1.3325 H       
  54 H54           -8.7018     8.6286     1.7594 H       
  55 H55          -10.2132     6.7557     2.2638 H       
  56 H56           -9.3465     4.4548     2.3727 H       
  57 H57            0.6145     7.6619     1.3959 H       
  58 H58           -1.0568     7.5079     1.4722 H       
  59 H59            7.6909     2.7488     0.9907 H       
  60 H60            7.6094     2.1305    -0.6769 H       
  61 H61            9.9639     2.4679     0.0646 H       
  62 H62            9.5478     3.5278    -1.3040 H       
  63 H63            9.1578     6.5110     0.7850 H       
  64 H64            9.0763     5.8927    -0.8826 H       
  65 H65            6.8033     6.1736     0.0435 H       
  66 H66            7.2194     5.1137     1.4121 H       
  67 H67           11.4161     4.9739    -0.5852 H       
  68 H68           11.9440     6.8082     0.7083 H       
  69 H69           10.6004     6.4083     1.8224 H       
  70 H70           12.1345     2.7712     0.4107 H       
  71 H71           13.1308     6.2467     2.8600 H       
  72 H72           12.2649     4.2759     4.1712 H       
  73 H73           10.7673     5.0909     3.6239 H       
  74 H74           10.2413     3.2558     2.3307 H       
  75 H75           11.7389     2.4409     2.8780 H       
  76 H76           13.9300     3.7981     2.1163 H       
  77 H77           13.7954     4.8604     0.6636 H       
@<TRIPOS>BOND
   1    1    2 1
   2    1    3 2
   3    2   12 1
   4    2    5 1
   5    3    4 1
   6    3    6 1
   7    4    5 2
   8    5   27 1
   9    6    7 1
  10    6   42 1
  11    7    8 ar
  12    7   11 ar
  13    8   28 ar
  14    8   43 1
  15    9   10 ar
  16    9   28 ar
  17    9   29 1
  18   10   11 ar
  19   10   44 1
  20   11   45 1
  21   12   13 ar
  22   12   17 ar
  23   13   14 ar
  24   14   15 ar
  25   15   16 ar
  26   15   18 1
  27   16   17 ar
  28   16   22 1
  29   17   46 1
  30   18   19 ar
  31   18   23 ar
  32   19   20 1
  33   19   26 ar
  34   20   21 1
  35   20   47 1
  36   20   48 1
  37   21   22 1
  38   21   49 1
  39   21   50 1
  40   22   51 1
  41   22   52 1
  42   23   24 ar
  43   23   53 1
  44   24   25 ar
  45   24   54 1
  46   25   26 ar
  47   25   55 1
  48   26   56 1
  49   27   57 1
  50   27   58 1
  51   29   30 1
  52   29   34 1
  53   30   31 1
  54   30   59 1
  55   30   60 1
  56   31   32 1
  57   31   61 1
  58   31   62 1
  59   32   33 1
  60   32   35 1
  61   33   34 1
  62   33   63 1
  63   33   64 1
  64   34   65 1
  65   34   66 1
  66   35   36 1
  67   35   37 1
  68   35   67 1
  69   36   38 1
  70   36   68 1
  71   36   69 1
  72   37   40 1
  73   37   41 1
  74   37   70 1
  75   38   39 1
  76   38   41 1
  77   38   71 1
  78   39   40 1
  79   39   72 1
  80   39   73 1
  81   40   74 1
  82   40   75 1
  83   41   76 1
  84   41   77 1

#	End of record

