#	Name: ASD03930117
#	Creating user name:	WinNT
#	Creation time:	15. 06. 2019 20:47

#	Modifying user name:	WinNT
#	Modification time:	15. 06. 2019 20:47

#	Program:	/corina/corina34_cracker 3.40 0067  02.08.2006

@<TRIPOS>MOLECULE
ASD03930117
  48   51    0    0    0
SMALL
NO_CHARGES


@<TRIPOS>ATOM
   1 C1            -0.0167     1.3779     0.0096 C.ar    
   2 C2             0.0021    -0.0041     0.0020 C.ar    
   3 C3             1.2084    -0.6771    -0.0131 C.ar    
   4 C4             2.3998     0.0283    -0.0202 C.ar    
   5 C5             2.3810     1.4107    -0.0126 C.ar    
   6 C6             1.1710     2.0835     0.0021 C.ar    
   7 C7             3.8311    -0.4638    -0.0359 C.3     
   8 C8             4.6718     0.7530    -0.4773 C.3     
   9 C9             3.7985     1.9416    -0.0226 C.3     
  10 N10            5.9671     0.7668     0.2070 N.am    
  11 C11           -1.2922    -0.7760     0.0107 C.3     
  12 N12           -1.7253    -1.0187    -1.3676 N.pl3   
  13 N13           -1.9198    -0.0434    -2.3542 N.2     
  14 C14           -2.3054    -0.6430    -3.4513 C.2     
  15 C15           -2.3688    -2.0173    -3.1989 C.2     
  16 C16           -2.0018    -2.2218    -1.9127 C.2     
  17 C17           -2.6264     0.0307    -4.7605 C.3     
  18 F18           -2.3399     1.3967    -4.6645 F       
  19 F19           -1.8537    -0.5373    -5.7790 F       
  20 F20           -3.9835    -0.1417    -5.0533 F       
  21 S21            7.3153     1.3149    -0.5832 S.o2    
  22 O22            8.3638     1.1589     0.3630 O.2     
  23 O23            7.3206     0.5945    -1.8081 O.2     
  24 C24            6.9823     3.0732    -0.8804 C.3     
  25 C25           -2.7690    -3.0826    -4.1869 C.3     
  26 O26           -2.7107    -4.3635    -3.5560 O.3     
  27 C27            8.0033     3.8553    -1.7091 C.3     
  28 C28            6.6434     3.4960    -2.3112 C.3     
  29 H29           -0.9589     1.9056     0.0170 H       
  30 H30            1.2222    -1.7570    -0.0191 H       
  31 H31            1.1556     3.1633     0.0076 H       
  32 H32            4.1303    -0.7888     0.9606 H       
  33 H33            3.9428    -1.2797    -0.7500 H       
  34 H34            4.8039     0.7608    -1.5592 H       
  35 H35            3.8878     2.7681    -0.7277 H       
  36 H36            4.0889     2.2636     0.9774 H       
  37 H37            6.0351     0.4550     1.1230 H       
  38 H38           -1.1433    -1.7292     0.5180 H       
  39 H39           -2.0549    -0.2005     0.5353 H       
  40 H40           -1.9472    -3.1762    -1.4101 H       
  41 H41            6.4834     3.6010    -0.0676 H       
  42 H42           -3.7852    -2.8940    -4.5330 H       
  43 H43           -2.0866    -3.0648    -5.0367 H       
  44 H44           -2.9562    -5.0984    -4.1345 H       
  45 H45            8.1757     4.8979    -1.4418 H       
  46 H46            8.8750     3.3134    -2.0757 H       
  47 H47            6.6205     2.7177    -3.0739 H       
  48 H48            5.9212     4.3022    -2.4400 H       
@<TRIPOS>BOND
   1    1    2 ar
   2    1    6 ar
   3    1   29 1
   4    2    3 ar
   5    2   11 1
   6    3    4 ar
   7    3   30 1
   8    4    5 ar
   9    4    7 1
  10    5    6 ar
  11    5    9 1
  12    6   31 1
  13    7    8 1
  14    7   32 1
  15    7   33 1
  16    8    9 1
  17    8   10 1
  18    8   34 1
  19    9   35 1
  20    9   36 1
  21   10   21 am
  22   10   37 1
  23   11   12 1
  24   11   38 1
  25   11   39 1
  26   12   13 1
  27   12   16 1
  28   13   14 2
  29   14   15 1
  30   14   17 1
  31   15   16 2
  32   15   25 1
  33   16   40 1
  34   17   18 1
  35   17   19 1
  36   17   20 1
  37   21   22 2
  38   21   23 2
  39   21   24 1
  40   24   27 1
  41   24   28 1
  42   24   41 1
  43   25   26 1
  44   25   42 1
  45   25   43 1
  46   26   44 1
  47   27   28 1
  48   27   45 1
  49   27   46 1
  50   28   47 1
  51   28   48 1

#	End of record

