#	Name: ASD01901549
#	Creating user name:	WinNT
#	Creation time:	15. 06. 2019 19:53

#	Modifying user name:	WinNT
#	Modification time:	15. 06. 2019 19:53

#	Program:	/corina/corina34_cracker 3.40 0067  02.08.2006

@<TRIPOS>MOLECULE
ASD01901549
  44   48    0    0    0
SMALL
NO_CHARGES


@<TRIPOS>ATOM
   1 C1            -1.8260     2.0233    -0.1637 C.3     
   2 O2            -1.6050     0.6158    -0.0541 O.3     
   3 C3            -0.7550     0.0541    -0.9500 C.ar    
   4 C4            -0.5043    -1.3109    -0.8979 C.ar    
   5 C5             0.3650    -1.8716    -1.8177 C.ar    
   6 C6             0.9552    -1.0426    -2.7614 C.ar    
   7 C7             1.9077    -1.6085    -3.7828 C.3     
   8 C8             1.1381    -2.0302    -5.0080 C.2     
   9 N9             0.6127    -3.1979    -5.2207 N.2     
  10 O10           -0.0289    -3.2109    -6.4801 O.3     
  11 C11            0.1085    -2.0026    -7.0631 C.ar    
  12 C12           -0.3157    -1.4752    -8.2739 C.ar    
  13 C13           -0.0098    -0.1623    -8.5970 C.ar    
  14 N14           -0.4356     0.3689    -9.8138 N.pl3   
  15 C15            0.3112     1.3729   -10.4381 C.2     
  16 N16            1.4715     1.8272   -10.0451 N.2     
  17 N17            1.9141     2.8280   -10.9162 N.pl3   
  18 H18            2.7481     3.3166   -10.8342 H       
  19 C19            0.9820     3.0078   -11.9038 C.ar    
  20 C20            0.8969     3.8495   -13.0123 C.ar    
  21 C21           -0.2210     3.7579   -13.8179 C.ar    
  22 C22           -1.2181     2.8423   -13.5076 C.ar    
  23 N23           -1.1224     2.0564   -12.4593 N.ar    
  24 C24           -0.0642     2.0994   -11.6534 C.ar    
  25 C25            0.7210     0.6310    -7.7124 C.ar    
  26 C26            1.1447     0.1246    -6.5184 C.ar    
  27 C27            0.8403    -1.1957    -6.1742 C.ar    
  28 C28            0.6599     0.3063    -2.7545 C.ar    
  29 N29           -0.1771     0.8108    -1.8682 N.ar    
  30 H30           -0.8799     2.5503    -0.0400 H       
  31 H31           -2.2428     2.2503    -1.1450 H       
  32 H32           -2.5238     2.3429     0.6102 H       
  33 H33           -0.9808    -1.9266    -0.1494 H       
  34 H34            0.5793    -2.9300    -1.8011 H       
  35 H35            2.6397    -0.8489    -4.0572 H       
  36 H36            2.4214    -2.4725    -3.3612 H       
  37 H37           -0.8818    -2.0851    -8.9624 H       
  38 H38           -1.2499     0.0420   -10.2273 H       
  39 H39            1.6842     4.5546   -13.2347 H       
  40 H40           -0.3195     4.3950   -14.6844 H       
  41 H41           -2.0902     2.7752   -14.1410 H       
  42 H42            0.9533     1.6527    -7.9745 H       
  43 H43            1.7104     0.7441    -5.8382 H       
  44 H44            1.1165     0.9558    -3.4867 H       
@<TRIPOS>BOND
   1    1    2 1
   2    1   30 1
   3    1   31 1
   4    1   32 1
   5    2    3 1
   6    3   29 ar
   7    3    4 ar
   8    4    5 ar
   9    4   33 1
  10    5    6 ar
  11    5   34 1
  12    6    7 1
  13    6   28 ar
  14    7    8 1
  15    7   35 1
  16    7   36 1
  17    8   27 1
  18    8    9 2
  19    9   10 1
  20   10   11 1
  21   11   27 ar
  22   11   12 ar
  23   12   13 ar
  24   12   37 1
  25   13   14 1
  26   13   25 ar
  27   14   15 1
  28   14   38 1
  29   15   24 1
  30   15   16 2
  31   16   17 1
  32   17   18 1
  33   17   19 1
  34   19   24 ar
  35   19   20 ar
  36   20   21 ar
  37   20   39 1
  38   21   22 ar
  39   21   40 1
  40   22   23 ar
  41   22   41 1
  42   23   24 ar
  43   25   26 ar
  44   25   42 1
  45   26   27 ar
  46   26   43 1
  47   28   29 ar
  48   28   44 1

#	End of record

