#	Name: ASD03092799
#	Creating user name:	WinNT
#	Creation time:	15. 06. 2019 20:33

#	Modifying user name:	WinNT
#	Modification time:	15. 06. 2019 20:33

#	Program:	/corina/corina34_cracker 3.40 0067  02.08.2006

@<TRIPOS>MOLECULE
ASD03092799
  54   57    0    0    0
SMALL
NO_CHARGES


@<TRIPOS>ATOM
   1 C1            -0.0198     1.4432    -0.0024 C.3     
   2 O2            -0.0060     0.0143    -0.0104 O.3     
   3 C3             0.5984    -0.5913    -1.0672 C.ar    
   4 C4             1.1713     0.1821    -2.0727 C.ar    
   5 C5             1.7867    -0.4185    -3.1497 C.ar    
   6 C6             1.8372    -1.8027    -3.2341 C.ar    
   7 N7             2.3636    -2.6901    -4.1544 N.pl3   
   8 C8             2.1058    -3.9453    -3.6987 C.2     
   9 N9             1.4616    -3.8879    -2.5696 N.2     
  10 C10            1.2616    -2.5903    -2.2229 C.ar    
  11 C11            0.6451    -1.9696    -1.1335 C.ar    
  12 C12            3.0684    -2.3428    -5.3908 C.3     
  13 C13            4.4854    -2.9196    -5.3493 C.3     
  14 C14            5.2307    -2.5253    -6.6282 C.3     
  15 N15            4.4383    -2.9544    -7.7887 N.am    
  16 C16            3.0346    -2.5304    -7.8815 C.3     
  17 C17            2.3139    -2.9247    -6.5884 C.3     
  18 C18            4.9887    -3.7220    -8.7501 C.2     
  19 O19            6.1745    -3.9878    -8.7112 O.2     
  20 N20            4.2246    -4.1951    -9.7545 N.am    
  21 C21            4.8417    -4.9345   -10.8585 C.3     
  22 C22            4.9840    -6.4073   -10.4692 C.3     
  23 C23            5.6284    -7.1796   -11.6222 C.3     
  24 C24            4.7481    -7.0642   -12.8682 C.3     
  25 C25            4.6058    -5.5914   -13.2575 C.3     
  26 C26            3.9614    -4.8192   -12.1046 C.3     
  27 H27            1.0042     1.8165    -0.0075 H       
  28 H28           -0.5434     1.8064    -0.8868 H       
  29 H29           -0.5310     1.7966     0.8931 H       
  30 H30            1.1330     1.2596    -2.0087 H       
  31 H31            2.2287     0.1872    -3.9270 H       
  32 H32            2.3938    -4.8570    -4.2009 H       
  33 H33            0.2030    -2.5654    -0.3487 H       
  34 H34            3.1207    -1.2583    -5.4867 H       
  35 H35            5.0144    -2.5227    -4.4828 H       
  36 H36            4.4340    -4.0061    -5.2785 H       
  37 H37            5.3624    -1.4436    -6.6556 H       
  38 H38            6.2043    -3.0147    -6.6495 H       
  39 H39            2.9873    -1.4491    -8.0110 H       
  40 H40            2.5593    -3.0232    -8.7296 H       
  41 H41            2.2830    -4.0111    -6.5060 H       
  42 H42            1.2975    -2.5314    -6.6040 H       
  43 H43            3.2662    -4.0460    -9.7465 H       
  44 H44            5.8264    -4.5177   -11.0695 H       
  45 H45            5.6112    -6.4895    -9.5815 H       
  46 H46            3.9993    -6.8242   -10.2582 H       
  47 H47            6.6132    -6.7627   -11.8332 H       
  48 H48            5.7299    -8.2288   -11.3449 H       
  49 H49            5.2072    -7.6144   -13.6896 H       
  50 H50            3.7634    -7.4811   -12.6573 H       
  51 H51            5.5905    -5.1745   -13.4685 H       
  52 H52            3.9786    -5.5092   -14.1452 H       
  53 H53            2.9766    -5.2361   -11.8936 H       
  54 H54            3.8599    -3.7699   -12.3819 H       
@<TRIPOS>BOND
   1    1    2 1
   2    1   27 1
   3    1   28 1
   4    1   29 1
   5    2    3 1
   6    3   11 ar
   7    3    4 ar
   8    4    5 ar
   9    4   30 1
  10    5    6 ar
  11    5   31 1
  12    6   10 ar
  13    6    7 1
  14    7    8 1
  15    7   12 1
  16    8    9 2
  17    8   32 1
  18    9   10 1
  19   10   11 ar
  20   11   33 1
  21   12   17 1
  22   12   13 1
  23   12   34 1
  24   13   14 1
  25   13   35 1
  26   13   36 1
  27   14   15 1
  28   14   37 1
  29   14   38 1
  30   15   16 1
  31   15   18 am
  32   16   17 1
  33   16   39 1
  34   16   40 1
  35   17   41 1
  36   17   42 1
  37   18   19 2
  38   18   20 am
  39   20   21 1
  40   20   43 1
  41   21   26 1
  42   21   22 1
  43   21   44 1
  44   22   23 1
  45   22   45 1
  46   22   46 1
  47   23   24 1
  48   23   47 1
  49   23   48 1
  50   24   25 1
  51   24   49 1
  52   24   50 1
  53   25   26 1
  54   25   51 1
  55   25   52 1
  56   26   53 1
  57   26   54 1

#	End of record

