#	Name: ASD01918095
#	Creating user name:	WinNT
#	Creation time:	15. 06. 2019 20:10

#	Modifying user name:	WinNT
#	Modification time:	15. 06. 2019 20:10

#	Program:	/corina/corina34_cracker 3.40 0067  02.08.2006

@<TRIPOS>MOLECULE
ASD01918095
  40   42    0    0    0
SMALL
NO_CHARGES


@<TRIPOS>ATOM
   1 N1            -0.0169     1.3953     0.0105 N.am    
   2 C2             0.0020    -0.0041     0.0057 C.2     
   3 C3             2.4258    -0.1102    -0.5608 C.3     
   4 C4             2.2028     1.3393    -1.0071 C.3     
   5 C5             1.3004     2.0618    -0.0005 C.3     
   6 C6            -1.0006    -0.8781     0.2385 C.2     
   7 C7            -0.4732    -2.1702     0.1177 C.2     
   8 N8             0.8008    -2.0712    -0.1775 N.2     
   9 N9             1.1281    -0.7182    -0.2558 N.pl3   
  10 C10           -1.2394    -3.4555     0.2970 C.3     
  11 O11           -2.6011    -3.1582     0.6125 O.3     
  12 C12           -1.1698     2.0934     0.0191 C.2     
  13 C13           -1.1405     3.5952     0.1408 C.3     
  14 O14           -2.2309     1.5129    -0.0713 O.2     
  15 C15           -3.4340    -4.2143     0.8070 C.ar    
  16 C16           -4.7690    -3.9985     1.1165 C.ar    
  17 C17           -5.6137    -5.0737     1.3138 C.ar    
  18 C18           -5.1295    -6.3641     1.2031 C.ar    
  19 C19           -3.7993    -6.5818     0.8952 C.ar    
  20 C20           -2.9520    -5.5100     0.6909 C.ar    
  21 C21           -2.5610     4.1460     0.0013 C.3     
  22 H22            2.9110    -0.6681    -1.3617 H       
  23 H23            3.0544    -0.1253     0.3296 H       
  24 H24            3.1629     1.8520    -1.0656 H       
  25 H25            1.7291     1.3471    -1.9888 H       
  26 H26            1.1811     3.1037    -0.2977 H       
  27 H27            1.7453     2.0101     0.9932 H       
  28 H28           -2.0238    -0.6265     0.4753 H       
  29 H29           -1.1983    -4.0347    -0.6254 H       
  30 H30           -0.7960    -4.0326     1.1085 H       
  31 H31           -0.7371     3.8729     1.1146 H       
  32 H32           -0.5106     4.0112    -0.6455 H       
  33 H33           -5.1476    -2.9908     1.2034 H       
  34 H34           -6.6530    -4.9062     1.5550 H       
  35 H35           -5.7914    -7.2033     1.3577 H       
  36 H36           -3.4233    -7.5907     0.8100 H       
  37 H37           -1.9130    -5.6806     0.4504 H       
  38 H38           -2.5398     5.2322     0.0894 H       
  39 H39           -2.9644     3.8682    -0.9725 H       
  40 H40           -3.1909     3.7299     0.7876 H       
@<TRIPOS>BOND
   1    1    2 1
   2    1    5 1
   3    1   12 am
   4    2    6 2
   5    2    9 1
   6    3    4 1
   7    3    9 1
   8    3   22 1
   9    3   23 1
  10    4    5 1
  11    4   24 1
  12    4   25 1
  13    5   26 1
  14    5   27 1
  15    6    7 1
  16    6   28 1
  17    7    8 2
  18    7   10 1
  19    8    9 1
  20   10   11 1
  21   10   29 1
  22   10   30 1
  23   11   15 1
  24   12   13 1
  25   12   14 2
  26   13   21 1
  27   13   31 1
  28   13   32 1
  29   15   16 ar
  30   15   20 ar
  31   16   17 ar
  32   16   33 1
  33   17   18 ar
  34   17   34 1
  35   18   19 ar
  36   18   35 1
  37   19   20 ar
  38   19   36 1
  39   20   37 1
  40   21   38 1
  41   21   39 1
  42   21   40 1

#	End of record

