#	Name: ASD07130013
#	Creating user name:	WinNT
#	Creation time:	15. 06. 2019 21:09

#	Modifying user name:	WinNT
#	Modification time:	15. 06. 2019 21:09

#	Program:	/corina/corina34_cracker 3.40 0067  02.08.2006

@<TRIPOS>MOLECULE
ASD07130013
  74   76    0    0    0
SMALL
NO_CHARGES


@<TRIPOS>ATOM
   1 C1            -0.0173     1.4248     0.0099 C.3     
   2 O2             0.0021    -0.0041     0.0020 O.3     
   3 C3            -3.0027    -2.8103     1.0067 C.3     
   4 N4            -4.3302    -3.4265     1.1331 N.3     
   5 C5            -4.5382     0.3352     2.0774 C.3     
   6 C6             1.4189     1.9549    -0.0010 C.3     
   7 N7             2.1479     1.4214     1.1574 N.3     
   8 C8            -2.6813    -2.5903    -0.4729 C.3     
   9 C9            -5.4791     1.2824     1.3282 C.3     
  10 O10           -6.4970     0.5240     0.6719 O.3     
  11 C11            2.1106     1.5065    -1.2920 C.3     
  12 O12            2.1863     0.0799    -1.3231 O.3     
  13 C13           -1.2987    -1.9485    -0.6044 C.3     
  14 N14           -0.9901    -1.7373    -2.0250 N.3     
  15 C15           -6.1239     2.2462     2.3290 C.3     
  16 N16           -7.0853     3.1096     1.6303 N.3     
  17 C17            1.2986     2.0029    -2.4923 C.3     
  18 O18            1.8950     1.5289    -3.7012 O.3     
  19 C19           -1.2893    -0.6035     0.1249 C.3     
  20 C20           -6.8517     1.4353     3.4057 C.3     
  21 O21           -7.9059     0.6810     2.8044 O.3     
  22 C22           -0.1329     1.4709    -2.3852 C.3     
  23 O23           -0.7073     1.8984    -1.1485 O.3     
  24 C24           -1.6107    -0.8235     1.6045 C.3     
  25 O25           -1.6019     0.4326     2.2857 O.3     
  26 C26           -5.8578     0.4822     4.0747 C.3     
  27 O27           -5.2719    -0.3650     3.0842 O.3     
  28 C28           -0.9665     2.0114    -3.5487 C.3     
  29 O29           -0.3912     1.5849    -4.7854 O.3     
  30 C30           -2.9933    -1.4654     1.7361 C.3     
  31 O31           -3.9756    -0.6032     1.1583 O.3     
  32 C32           -2.3971     1.4796    -3.4415 C.3     
  33 C33           -7.4358     2.3850     4.4535 C.3     
  34 C34           -6.4136     4.2743     1.0385 C.3     
  35 H35           -0.5278     1.7765     0.9064 H       
  36 H36           -2.2535    -3.4679     1.4475 H       
  37 H37           -4.3622    -4.3168     0.6592 H       
  38 H38           -4.5933    -3.5232     2.1024 H       
  39 H39           -3.7390     0.9109     2.5443 H       
  40 H40            1.4056     3.0438     0.0470 H       
  41 H41            1.7073     1.6996     2.0214 H       
  42 H42            2.2313     0.4174     1.1010 H       
  43 H43           -2.6880    -3.5485    -0.9925 H       
  44 H44           -3.4306    -1.9327    -0.9136 H       
  45 H45           -4.9129     1.8487     0.5888 H       
  46 H46           -6.1592    -0.1116     0.0262 H       
  47 H47            3.1159     1.9259    -1.3317 H       
  48 H48            2.6138    -0.2741    -2.1150 H       
  49 H49           -0.5494    -2.6061    -0.1637 H       
  50 H50           -0.9902    -2.6115    -2.5289 H       
  51 H51           -1.6329    -1.0801    -2.4409 H       
  52 H52           -5.3521     2.8605     2.7928 H       
  53 H53           -7.5943     2.5913     0.9300 H       
  54 H54            1.2838     3.0928    -2.4964 H       
  55 H55            2.8065     1.8241    -3.8322 H       
  56 H56           -2.0385     0.0540    -0.3158 H       
  57 H57           -8.4103     0.1425     3.4295 H       
  58 H58           -0.1196     0.3816    -2.4225 H       
  59 H59           -0.8614    -1.4811     2.0452 H       
  60 H60           -1.7983     0.3691     3.2304 H       
  61 H61           -5.0758     1.0598     4.5676 H       
  62 H62           -6.3793    -0.1277     4.8124 H       
  63 H63           -0.9800     3.1007    -3.5108 H       
  64 H64           -0.3470     0.6244    -4.8880 H       
  65 H65           -3.2223    -1.6221     2.7902 H       
  66 H66           -2.8359     1.8050    -2.4983 H       
  67 H67           -2.9909     1.8647    -4.2705 H       
  68 H68           -2.3836     0.3904    -3.4794 H       
  69 H69           -8.1393     3.0660     3.9746 H       
  70 H70           -7.9534     1.8072     5.2192 H       
  71 H71           -6.6308     2.9583     4.9132 H       
  72 H72           -5.9309     4.8540     1.8254 H       
  73 H73           -5.6633     3.9366     0.3236 H       
  74 H74           -7.1483     4.8966     0.5275 H       
@<TRIPOS>BOND
   1    1    2 1
   2    1    6 1
   3    1   23 1
   4    1   35 1
   5    2   19 1
   6    3    4 1
   7    3    8 1
   8    3   30 1
   9    3   36 1
  10    4   37 1
  11    4   38 1
  12    5    9 1
  13    5   27 1
  14    5   31 1
  15    5   39 1
  16    6    7 1
  17    6   11 1
  18    6   40 1
  19    7   41 1
  20    7   42 1
  21    8   13 1
  22    8   43 1
  23    8   44 1
  24    9   10 1
  25    9   15 1
  26    9   45 1
  27   10   46 1
  28   11   12 1
  29   11   17 1
  30   11   47 1
  31   12   48 1
  32   13   14 1
  33   13   19 1
  34   13   49 1
  35   14   50 1
  36   14   51 1
  37   15   16 1
  38   15   20 1
  39   15   52 1
  40   16   34 1
  41   16   53 1
  42   17   18 1
  43   17   22 1
  44   17   54 1
  45   18   55 1
  46   19   24 1
  47   19   56 1
  48   20   21 1
  49   20   26 1
  50   20   33 1
  51   21   57 1
  52   22   23 1
  53   22   28 1
  54   22   58 1
  55   24   25 1
  56   24   30 1
  57   24   59 1
  58   25   60 1
  59   26   27 1
  60   26   61 1
  61   26   62 1
  62   28   29 1
  63   28   32 1
  64   28   63 1
  65   29   64 1
  66   30   31 1
  67   30   65 1
  68   32   66 1
  69   32   67 1
  70   32   68 1
  71   33   69 1
  72   33   70 1
  73   33   71 1
  74   34   72 1
  75   34   73 1
  76   34   74 1

#	End of record

