#	Name: ASD03330585
#	Creating user name:	WinNT
#	Creation time:	15. 06. 2019 20:37

#	Modifying user name:	WinNT
#	Modification time:	15. 06. 2019 20:37

#	Program:	/corina/corina34_cracker 3.40 0067  02.08.2006

@<TRIPOS>MOLECULE
ASD03330585
  60   62    0    0    0
SMALL
NO_CHARGES


@<TRIPOS>ATOM
   1 C1            -0.3246     1.1690     0.8475 C.2     
   2 N2            -0.3540    -0.1699     1.0814 N.pl3   
   3 C3             0.9806     1.5549     0.8940 C.2     
   4 N4             1.7273     0.4553     1.1361 N.2     
   5 C5             0.9352    -0.5855     1.2443 C.2     
   6 C6             1.3678    -1.9766     1.5008 C.ar    
   7 C7             1.4878     2.9265     0.7127 C.2     
   8 O8             0.7120     3.8384     0.4988 O.2     
   9 C9             3.3156     4.5342     0.6036 C.3     
  10 N10            2.8114     3.1705     0.7839 N.am    
  11 C11            3.4921     4.8195    -0.8891 C.3     
  12 C12            2.1251     4.8049    -1.5763 C.3     
  13 C13            4.1404     6.1931    -1.0726 C.3     
  14 C14            4.3871     3.7459    -1.5112 C.3     
  15 C15            4.6432     4.6753     1.3025 C.2     
  16 N16            5.1799     5.8974     1.4893 N.am    
  17 O17            5.2288     3.6892     1.6968 O.2     
  18 C18            6.5033     6.0302     2.1036 C.3     
  19 C19           -1.5640    -0.9933     1.1554 C.3     
  20 C20           -2.4702    -0.6625    -0.0347 C.3     
  21 C21           -3.3818     0.5075     0.3209 C.3     
  22 N22           -2.7054     1.4499     1.2144 N.3     
  23 C23           -1.5222     2.0406     0.5714 C.3     
  24 C24           -3.6301     2.4940     1.6758 C.3     
  25 C25            0.9312    -4.1572     2.4126 C.ar    
  26 C26            2.1788    -4.5841     1.9816 C.ar    
  27 C27            3.0241    -3.7085     1.3159 C.ar    
  28 C28            2.6240    -2.4085     1.0742 C.ar    
  29 C29            0.5231    -2.8589     2.1751 C.ar    
  30 F30            2.5718    -5.8561     2.2114 F       
  31 F31            4.2382    -4.1293     0.8987 F       
  32 F32            0.1118    -5.0140     3.0605 F       
  33 H33            2.6046     5.2434     1.0275 H       
  34 H34            3.4301     2.4433     0.9545 H       
  35 H35            1.4875     5.5698    -1.1331 H       
  36 H36            2.2509     5.0082    -2.6397 H       
  37 H37            1.6632     3.8263    -1.4455 H       
  38 H38            5.0994     6.2143    -0.5549 H       
  39 H39            4.2966     6.3823    -2.1347 H       
  40 H40            3.4872     6.9614    -0.6590 H       
  41 H41            3.9252     2.7673    -1.3805 H       
  42 H42            4.5129     3.9491    -2.5747 H       
  43 H43            5.3610     3.7563    -1.0217 H       
  44 H44            4.6899     6.6891     1.2170 H       
  45 H45            6.7680     7.0854     2.1716 H       
  46 H46            6.4854     5.5950     3.1027 H       
  47 H47            7.2410     5.5091     1.4934 H       
  48 H48           -1.2897    -2.0477     1.1224 H       
  49 H49           -2.0921    -0.7821     2.0852 H       
  50 H50           -1.8561    -0.3953    -0.8946 H       
  51 H51           -3.0776    -1.5335    -0.2808 H       
  52 H52           -3.6711     1.0261    -0.5932 H       
  53 H53           -4.2765     0.1270     0.8135 H       
  54 H54           -1.3478     3.0380     0.9750 H       
  55 H55           -1.6859     2.1050    -0.5043 H       
  56 H56           -4.4578     2.0336     2.2153 H       
  57 H57           -3.1020     3.1803     2.3378 H       
  58 H58           -4.0165     3.0426     0.8169 H       
  59 H59            3.2826    -1.7276     0.5556 H       
  60 H60           -0.4481    -2.5272     2.5113 H       
@<TRIPOS>BOND
   1    1    2 1
   2    1    3 2
   3    1   23 1
   4    2   19 1
   5    2    5 1
   6    3    4 1
   7    3    7 1
   8    4    5 2
   9    5    6 1
  10    6   29 ar
  11    6   28 ar
  12    7    8 2
  13    7   10 am
  14    9   10 1
  15    9   11 1
  16    9   15 1
  17    9   33 1
  18   10   34 1
  19   11   12 1
  20   11   13 1
  21   11   14 1
  22   12   35 1
  23   12   36 1
  24   12   37 1
  25   13   38 1
  26   13   39 1
  27   13   40 1
  28   14   41 1
  29   14   42 1
  30   14   43 1
  31   15   16 am
  32   15   17 2
  33   16   18 1
  34   16   44 1
  35   18   45 1
  36   18   46 1
  37   18   47 1
  38   19   20 1
  39   19   48 1
  40   19   49 1
  41   20   21 1
  42   20   50 1
  43   20   51 1
  44   21   22 1
  45   21   52 1
  46   21   53 1
  47   22   23 1
  48   22   24 1
  49   23   54 1
  50   23   55 1
  51   24   56 1
  52   24   57 1
  53   24   58 1
  54   25   26 ar
  55   25   32 1
  56   25   29 ar
  57   26   27 ar
  58   26   30 1
  59   27   28 ar
  60   27   31 1
  61   28   59 1
  62   29   60 1

#	End of record

