#	Name: ASD01911948
#	Creating user name:	WinNT
#	Creation time:	15. 06. 2019 19:58

#	Modifying user name:	WinNT
#	Modification time:	15. 06. 2019 19:58

#	Program:	/corina/corina34_cracker 3.40 0067  02.08.2006

@<TRIPOS>MOLECULE
ASD01911948
  54   57    0    0    0
SMALL
NO_CHARGES


@<TRIPOS>ATOM
   1 C1             0.0484     1.5823    -1.5080 C.ar    
   2 C2             0.0932     0.2079    -1.6433 C.ar    
   3 C3            -1.1678    -0.5990    -1.4705 C.3     
   4 O4            -2.2575     0.2773    -1.1764 O.3     
   5 C5            -3.4762    -0.2946    -0.9902 C.ar    
   6 C6            -4.5783     0.4969    -0.7014 C.ar    
   7 C7            -5.8161    -0.0868    -0.5126 C.ar    
   8 C8            -5.9570    -1.4587    -0.6112 C.ar    
   9 C9            -4.8600    -2.2498    -0.8985 C.ar    
  10 C10           -3.6213    -1.6704    -1.0943 C.ar    
  11 C11           -7.3084    -2.0929    -0.4048 C.3     
  12 C12           -8.0309    -2.1765    -1.7246 C.2     
  13 O13           -7.5007    -1.7620    -2.7335 O.2     
  14 N14           -9.2663    -2.7120    -1.7838 N.am    
  15 C15           -9.9891    -2.8033    -3.0614 C.3     
  16 C16          -10.4818    -4.2433    -3.2402 C.3     
  17 N17          -11.2571    -4.6425    -2.0581 N.3     
  18 C18          -10.4226    -4.6441    -0.8491 C.3     
  19 C19           -9.9250    -3.2261    -0.5734 C.3     
  20 C20          -11.8544    -5.8761    -2.2501 C.ar    
  21 C21          -13.1361    -6.1211    -1.7279 C.ar    
  22 C22          -13.7195    -7.3763    -1.9350 C.ar    
  23 C23          -13.0054    -8.3237    -2.6474 C.ar    
  24 C24          -11.7481    -8.0080    -3.1303 C.ar    
  25 N25          -11.2177    -6.8174    -2.9292 N.ar    
  26 N26            1.2267    -0.4059    -1.9223 N.ar    
  27 C27            2.3541     0.2589    -2.0821 C.ar    
  28 C28            2.3864     1.6355    -1.9612 C.ar    
  29 C29            1.2143     2.3156    -1.6690 C.ar    
  30 C30          -13.8321    -5.1052    -0.9971 C.1     
  31 N31          -14.3842    -4.2992    -0.4173 N.1     
  32 H32           -0.8839     2.0796    -1.2842 H       
  33 H33           -1.3786    -1.1450    -2.3901 H       
  34 H34           -1.0377    -1.3051    -0.6504 H       
  35 H35           -4.4687     1.5686    -0.6240 H       
  36 H36           -6.6743     0.5289    -0.2874 H       
  37 H37           -4.9725    -3.3213    -0.9743 H       
  38 H38           -2.7647    -2.2887    -1.3187 H       
  39 H39           -7.1807    -3.0954     0.0037 H       
  40 H40           -7.8908    -1.4886     0.2907 H       
  41 H41          -10.8412    -2.1236    -3.0495 H       
  42 H42           -9.3195    -2.5410    -3.8805 H       
  43 H43          -11.1130    -4.3043    -4.1268 H       
  44 H44           -9.6262    -4.9087    -3.3558 H       
  45 H45          -11.0108    -4.9958    -0.0016 H       
  46 H46           -9.5679    -5.3039    -0.9980 H       
  47 H47           -9.2149    -3.2415     0.2534 H       
  48 H48          -10.7694    -2.5841    -0.3225 H       
  49 H49          -14.7026    -7.6002    -1.5481 H       
  50 H50          -13.4263    -9.3023    -2.8248 H       
  51 H51          -11.1924    -8.7488    -3.6860 H       
  52 H52            3.2630    -0.2784    -2.3096 H       
  53 H53            3.3130     2.1744    -2.0929 H       
  54 H54            1.2094     3.3909    -1.5687 H       
@<TRIPOS>BOND
   1    1    2 ar
   2    1   29 ar
   3    1   32 1
   4    2    3 1
   5    2   26 ar
   6    3    4 1
   7    3   33 1
   8    3   34 1
   9    4    5 1
  10    5    6 ar
  11    5   10 ar
  12    6    7 ar
  13    6   35 1
  14    7    8 ar
  15    7   36 1
  16    8    9 ar
  17    8   11 1
  18    9   10 ar
  19    9   37 1
  20   10   38 1
  21   11   12 1
  22   11   39 1
  23   11   40 1
  24   12   13 2
  25   12   14 am
  26   14   15 1
  27   14   19 1
  28   15   16 1
  29   15   41 1
  30   15   42 1
  31   16   17 1
  32   16   43 1
  33   16   44 1
  34   17   18 1
  35   17   20 1
  36   18   19 1
  37   18   45 1
  38   18   46 1
  39   19   47 1
  40   19   48 1
  41   20   21 ar
  42   20   25 ar
  43   21   22 ar
  44   21   30 1
  45   22   23 ar
  46   22   49 1
  47   23   24 ar
  48   23   50 1
  49   24   25 ar
  50   24   51 1
  51   26   27 ar
  52   27   28 ar
  53   27   52 1
  54   28   29 ar
  55   28   53 1
  56   29   54 1
  57   30   31 3

#	End of record

