#	Name: ASD02508068
#	Creating user name:	WinNT
#	Creation time:	15. 06. 2019 20:23

#	Modifying user name:	WinNT
#	Modification time:	15. 06. 2019 20:23

#	Program:	/corina/corina34_cracker 3.40 0067  02.08.2006

@<TRIPOS>MOLECULE
ASD02508068
  36   38    0    0    0
SMALL
NO_CHARGES


@<TRIPOS>ATOM
   1 C1            -0.0119     1.3907    -0.0067 C.ar    
   2 C2             0.0073     0.0097     0.1100 C.ar    
   3 C3             1.1822     2.0999    -0.1341 C.ar    
   4 C4             2.3894     1.4196    -0.1433 C.ar    
   5 C5             2.4043     0.0375    -0.0259 C.ar    
   6 C6             1.2116    -0.6655     0.1002 C.ar    
   7 N7            -1.0411     2.3352    -0.0354 N.am    
   8 C8            -0.4717     3.5495    -0.1685 C.2     
   9 O9             0.8623     3.4139    -0.2290 O.3     
  10 N10            3.6223    -0.6505    -0.0351 N.am    
  11 S11            4.9592     0.0231     0.6729 S.o2    
  12 C12            4.5803     0.2669     2.3763 C.ar    
  13 C13            4.8507    -0.7313     3.2937 C.ar    
  14 O14           -1.0737     4.6044    -0.2287 O.2     
  15 O15            5.9790    -0.9653     0.6261 O.2     
  16 O16            5.1047     1.3175     0.1049 O.2     
  17 C17            1.2332    -2.1670     0.2274 C.3     
  18 C18            4.0182     1.4584     2.7952 C.ar    
  19 C19            3.7214     1.6511     4.1311 C.ar    
  20 C20            3.9869     0.6501     5.0501 C.ar    
  21 C21            4.5544    -0.5410     4.6301 C.ar    
  22 F22            3.6972     0.8373     6.3563 F       
  23 C23           -2.4761     2.0566     0.0611 C.3     
  24 H24           -0.9186    -0.5375     0.2089 H       
  25 H25            3.3168     1.9643    -0.2420 H       
  26 H26            3.6838    -1.5222    -0.4562 H       
  27 H27            5.2933    -1.6603     2.9659 H       
  28 H28            1.2950    -2.4415     1.2804 H       
  29 H29            0.3216    -2.5813    -0.2032 H       
  30 H30            2.0987    -2.5641    -0.3030 H       
  31 H31            3.8112     2.2391     2.0782 H       
  32 H32            3.2829     2.5823     4.4582 H       
  33 H33            4.7616    -1.3227     5.3460 H       
  34 H34           -2.7803     2.0749     1.1076 H       
  35 H35           -3.0313     2.8143    -0.4919 H       
  36 H36           -2.6845     1.0734    -0.3607 H       
@<TRIPOS>BOND
   1    1    2 ar
   2    1    3 ar
   3    1    7 1
   4    2    6 ar
   5    2   24 1
   6    3    4 ar
   7    3    9 1
   8    4    5 ar
   9    4   25 1
  10    5    6 ar
  11    5   10 1
  12    6   17 1
  13    7    8 am
  14    7   23 1
  15    8    9 1
  16    8   14 2
  17   10   11 am
  18   10   26 1
  19   11   12 1
  20   11   15 2
  21   11   16 2
  22   12   13 ar
  23   12   18 ar
  24   13   21 ar
  25   13   27 1
  26   17   28 1
  27   17   29 1
  28   17   30 1
  29   18   19 ar
  30   18   31 1
  31   19   20 ar
  32   19   32 1
  33   20   21 ar
  34   20   22 1
  35   21   33 1
  36   23   34 1
  37   23   35 1
  38   23   36 1

#	End of record

