#	Name: ASD09860002
#	Creating user name:	WinNT
#	Creation time:	15. 06. 2019 21:24

#	Modifying user name:	WinNT
#	Modification time:	15. 06. 2019 21:24

#	Program:	/corina/corina34_cracker 3.40 0067  02.08.2006

@<TRIPOS>MOLECULE
ASD09860002
  47   50    0    0    0
SMALL
NO_CHARGES


@<TRIPOS>ATOM
   1 C1            -1.8112     4.3938     1.5568 C.ar    
   2 C2            -2.3615     3.1150     1.4173 C.ar    
   3 C3            -3.6888     2.8996     1.7372 C.ar    
   4 C4            -4.4725     3.9438     2.1937 C.ar    
   5 C5            -3.9367     5.2110     2.3347 C.ar    
   6 C6            -2.6098     5.4430     2.0248 C.ar    
   7 F7            -2.0883     6.6816     2.1632 F       
   8 F8            -1.5979     2.0939     0.9707 F       
   9 C9            -0.3955     4.6332     1.2183 C.2     
  10 N10            0.5563     4.4914     2.1619 N.am    
  11 O11           -0.0873     4.9584     0.0878 O.2     
  12 C12            1.9008     4.7187     1.8404 C.2     
  13 N13            2.9182     4.6148     2.6627 N.2     
  14 C14            2.3960     5.0916     0.5804 C.2     
  15 C15            3.7393     5.2109     0.6812 C.2     
  16 N16            4.0862     4.9227     1.9534 N.pl3   
  17 C17            5.4465     4.9310     2.4973 C.3     
  18 C18            5.5008     5.8367     3.7005 C.ar    
  19 C19            5.1466     5.3518     4.9512 C.ar    
  20 C20            5.1977     6.1886     6.0571 C.ar    
  21 C21            5.6009     7.5014     5.9103 C.ar    
  22 C22            5.9530     7.9824     4.6624 C.ar    
  23 C23            5.9089     7.1492     3.5600 C.ar    
  24 O24            4.7499     4.0599     5.0929 O.3     
  25 C25            4.3087     3.6583     6.3138 C.ar    
  26 C26            2.9676     3.7879     6.6453 C.ar    
  27 C27            5.1975     3.1126     7.2290 C.ar    
  28 C28            4.7464     2.7047     8.4692 C.ar    
  29 C29            3.4103     2.8394     8.7989 C.ar    
  30 C30            2.5216     3.3784     7.8870 C.ar    
  31 H31           -4.1152     1.9132     1.6301 H       
  32 H32           -5.5090     3.7686     2.4412 H       
  33 H33           -4.5558     6.0208     2.6915 H       
  34 H34            0.3104     4.2319     3.0636 H       
  35 H35            1.8084     5.2537    -0.3111 H       
  36 H36            4.4148     5.4853    -0.1155 H       
  37 H37            5.7264     3.9194     2.7911 H       
  38 H38            6.1392     5.2936     1.7379 H       
  39 H39            4.9221     5.8136     7.0317 H       
  40 H40            5.6408     8.1530     6.7706 H       
  41 H41            6.2673     9.0094     4.5496 H       
  42 H42            6.1847     7.5272     2.5867 H       
  43 H43            2.2731     4.2088     5.9334 H       
  44 H44            6.2411     3.0066     6.9717 H       
  45 H45            5.4378     2.2800     9.1819 H       
  46 H46            3.0595     2.5192     9.7688 H       
  47 H47            1.4786     3.4828     8.1470 H       
@<TRIPOS>BOND
   1    1    2 ar
   2    1    9 1
   3    1    6 ar
   4    2    3 ar
   5    2    8 1
   6    3    4 ar
   7    3   31 1
   8    4    5 ar
   9    4   32 1
  10    5    6 ar
  11    5   33 1
  12    6    7 1
  13    9   10 am
  14    9   11 2
  15   10   12 1
  16   10   34 1
  17   12   13 2
  18   12   14 1
  19   13   16 1
  20   14   15 2
  21   14   35 1
  22   15   16 1
  23   15   36 1
  24   16   17 1
  25   17   18 1
  26   17   37 1
  27   17   38 1
  28   18   19 ar
  29   18   23 ar
  30   19   20 ar
  31   19   24 1
  32   20   21 ar
  33   20   39 1
  34   21   22 ar
  35   21   40 1
  36   22   23 ar
  37   22   41 1
  38   23   42 1
  39   24   25 1
  40   25   26 ar
  41   25   27 ar
  42   26   30 ar
  43   26   43 1
  44   27   28 ar
  45   27   44 1
  46   28   29 ar
  47   28   45 1
  48   29   30 ar
  49   29   46 1
  50   30   47 1

#	End of record

