#	Name: ASD03240130
#	Creating user name:	WinNT
#	Creation time:	15. 06. 2019 20:34

#	Modifying user name:	WinNT
#	Modification time:	15. 06. 2019 20:34

#	Program:	/corina/corina34_cracker 3.40 0067  02.08.2006

@<TRIPOS>MOLECULE
ASD03240130
  92   99    0    0    0
SMALL
NO_CHARGES


@<TRIPOS>ATOM
   1 C1            -0.8319     2.7275    -0.0347 C.ar    
   2 C2            -0.4732     1.4092     0.3530 C.ar    
   3 C3             0.1561     3.7222    -0.0989 C.ar    
   4 C4             1.4577     3.3681     0.2237 C.ar    
   5 C5             1.7411     2.0365     0.6009 C.ar    
   6 N6             0.7927     1.1198     0.6533 N.ar    
   7 C7             3.1320     1.6610     0.9450 C.ar    
   8 C8             2.5419     4.3777     0.1728 C.ar    
   9 C9             2.7026     5.1754    -0.9592 C.ar    
  10 C10            3.7137     6.1136    -1.0009 C.ar    
  11 C11            4.5669     6.2634     0.0776 C.ar    
  12 C12            4.4126     5.4744     1.2033 C.ar    
  13 C13            3.4012     4.5372     1.2589 C.ar    
  14 C14            3.3761     0.7180     1.9432 C.ar    
  15 C15            4.6740     0.3720     2.2589 C.ar    
  16 C16            5.7320     0.9583     1.5875 C.ar    
  17 C17            5.4962     1.8943     0.5963 C.ar    
  18 C18            4.2026     2.2447     0.2680 C.ar    
  19 C19            7.1471     0.5763     1.9375 C.3     
  20 N20           -1.4344     0.4777     0.4071 N.ar    
  21 C21           -2.6808     0.7872     0.1059 C.ar    
  22 N22           -3.0497     2.0130    -0.2611 N.ar    
  23 C23           -2.1784     2.9977    -0.3389 C.ar    
  24 N24            7.5676    -0.5594     1.1060 N.3     
  25 C25            9.0079    -0.8093     1.2459 C.3     
  26 C26            9.4360    -1.8992     0.2606 C.3     
  27 C27            8.6466    -3.1793     0.5484 C.3     
  28 C28            7.1485    -2.8802     0.4436 C.3     
  29 C29            6.7868    -1.7618     1.4235 C.3     
  30 C30            9.0203    -4.2381    -0.4566 C.2     
  31 N31            8.4830    -4.3965    -1.6893 N.pl3   
  32 C32            9.1214    -5.4741    -2.2412 C.2     
  33 N33            9.9863    -5.9053    -1.3500 N.2     
  34 N34            9.9259    -5.1671    -0.2991 N.2     
  35 C35            8.8829    -6.0455    -3.5847 C.ar    
  36 C36            9.6187    -7.1526    -4.0062 C.ar    
  37 C37            9.3837    -7.6760    -5.2659 C.ar    
  38 C38            8.4203    -7.0754    -6.0637 C.ar    
  39 C39            7.7271    -5.9793    -5.5823 C.ar    
  40 N40            7.9659    -5.5034    -4.3779 N.ar    
  41 N41           -3.6435    -0.2018     0.1733 N.3     
  42 C42           -4.9649     0.3240    -0.1944 C.3     
  43 C43           -5.9649    -0.8337    -0.2832 C.3     
  44 N44           -5.9241    -1.5845     0.9809 N.am    
  45 C45           -4.6153    -2.0269     1.4855 C.3     
  46 C46           -3.6684    -0.8222     1.5047 C.3     
  47 C47           -7.0558    -1.8593     1.6592 C.2     
  48 N48           -7.0805    -2.8740     2.5459 N.am    
  49 O49           -8.0546    -1.1918     1.4711 O.2     
  50 C50           -8.1783    -2.9773     3.5104 C.3     
  51 C51           -6.0096    -3.8736     2.5452 C.3     
  52 H52           -0.0895     4.7325    -0.3910 H       
  53 H53            2.0373     5.0591    -1.8020 H       
  54 H54            3.8393     6.7319    -1.8775 H       
  55 H55            5.3568     6.9990     0.0404 H       
  56 H56            5.0821     5.5953     2.0421 H       
  57 H57            3.2816     3.9217     2.1383 H       
  58 H58            2.5510     0.2599     2.4683 H       
  59 H59            4.8643    -0.3578     3.0319 H       
  60 H60            6.3263     2.3486     0.0757 H       
  61 H61            4.0198     2.9755    -0.5059 H       
  62 H62            7.8078     1.4239     1.7558 H       
  63 H63            7.1979     0.2949     2.9893 H       
  64 H64           -2.4893     3.9880    -0.6373 H       
  65 H65            9.5578     0.1078     1.0345 H       
  66 H66            9.2228    -1.1350     2.2637 H       
  67 H67            9.2341    -1.5685    -0.7582 H       
  68 H68           10.5020    -2.0954     0.3756 H       
  69 H69            8.8782    -3.5318     1.5535 H       
  70 H70            6.9107    -2.5649    -0.5724 H       
  71 H71            6.5803    -3.7773     0.6893 H       
  72 H72            7.0121    -2.0830     2.4405 H       
  73 H73            5.7235    -1.5366     1.3411 H       
  74 H74            7.7879    -3.8569    -2.0974 H       
  75 H75           10.3616    -7.5951    -3.3591 H       
  76 H76            9.9380    -8.5325    -5.6200 H       
  77 H77            8.2138    -7.4600    -7.0516 H       
  78 H78            6.9767    -5.5099    -6.2013 H       
  79 H79           -5.2973     1.0344     0.5625 H       
  80 H80           -4.9013     0.8245    -1.1606 H       
  81 H81           -6.9685    -0.4393    -0.4425 H       
  82 H82           -5.6916    -1.4912    -1.1085 H       
  83 H83           -4.7265    -2.4213     2.4955 H       
  84 H84           -4.2122    -2.7990     0.8302 H       
  85 H85           -2.6644    -1.1529     1.7707 H       
  86 H86           -4.0188    -0.0958     2.2379 H       
  87 H87           -9.1237    -3.0714     2.9762 H       
  88 H88           -8.0277    -3.8544     4.1397 H       
  89 H89           -8.2003    -2.0829     4.1331 H       
  90 H90           -5.1875    -3.5258     3.1709 H       
  91 H91           -6.3917    -4.8158     2.9380 H       
  92 H92           -5.6526    -4.0229     1.5262 H       
@<TRIPOS>BOND
   1    1    2 ar
   2    1    3 ar
   3    1   23 ar
   4    2   20 ar
   5    2    6 ar
   6    3    4 ar
   7    3   52 1
   8    4    5 ar
   9    4    8 1
  10    5    6 ar
  11    5    7 1
  12    7   14 ar
  13    7   18 ar
  14    8    9 ar
  15    8   13 ar
  16    9   10 ar
  17    9   53 1
  18   10   11 ar
  19   10   54 1
  20   11   12 ar
  21   11   55 1
  22   12   13 ar
  23   12   56 1
  24   13   57 1
  25   14   15 ar
  26   14   58 1
  27   15   16 ar
  28   15   59 1
  29   16   17 ar
  30   16   19 1
  31   17   18 ar
  32   17   60 1
  33   18   61 1
  34   19   24 1
  35   19   62 1
  36   19   63 1
  37   20   21 ar
  38   21   22 ar
  39   21   41 1
  40   22   23 ar
  41   23   64 1
  42   24   25 1
  43   24   29 1
  44   25   26 1
  45   25   65 1
  46   25   66 1
  47   26   27 1
  48   26   67 1
  49   26   68 1
  50   27   28 1
  51   27   30 1
  52   27   69 1
  53   28   29 1
  54   28   70 1
  55   28   71 1
  56   29   72 1
  57   29   73 1
  58   30   31 1
  59   30   34 2
  60   31   32 1
  61   31   74 1
  62   32   33 2
  63   32   35 1
  64   33   34 1
  65   35   36 ar
  66   35   40 ar
  67   36   37 ar
  68   36   75 1
  69   37   38 ar
  70   37   76 1
  71   38   39 ar
  72   38   77 1
  73   39   40 ar
  74   39   78 1
  75   41   42 1
  76   41   46 1
  77   42   43 1
  78   42   79 1
  79   42   80 1
  80   43   44 1
  81   43   81 1
  82   43   82 1
  83   44   45 1
  84   44   47 am
  85   45   46 1
  86   45   83 1
  87   45   84 1
  88   46   85 1
  89   46   86 1
  90   47   48 am
  91   47   49 2
  92   48   50 1
  93   48   51 1
  94   50   87 1
  95   50   88 1
  96   50   89 1
  97   51   90 1
  98   51   91 1
  99   51   92 1

#	End of record

