#	Name: ASD05430005
#	Creating user name:	WinNT
#	Creation time:	15. 06. 2019 20:59

#	Modifying user name:	WinNT
#	Modification time:	15. 06. 2019 20:59

#	Program:	/corina/corina34_cracker 3.40 0067  02.08.2006

@<TRIPOS>MOLECULE
ASD05430005
  67   72    0    0    0
SMALL
NO_CHARGES


@<TRIPOS>ATOM
   1 C1            -0.0700     1.2187    -0.3163 C.ar    
   2 C2            -0.0160    -0.0182     0.3254 C.ar    
   3 C3            -1.1666    -0.5710     0.8729 C.ar    
   4 C4            -2.3668     0.1000     0.7846 C.ar    
   5 C5            -2.4284     1.3412     0.1428 C.ar    
   6 C6            -1.2691     1.9003    -0.4033 C.ar    
   7 C7            -4.8993    -0.1382    -0.2374 C.3     
   8 C8            -4.8619     1.3704    -0.0488 C.2     
   9 C9            -3.7098     2.0594     0.0469 C.2     
  10 C10           -5.9506    -0.4678    -1.3025 C.3     
  11 C11           -7.3461    -0.0540    -0.8239 C.3     
  12 N12           -7.3277     1.3514    -0.4308 N.pl3   
  13 C13           -6.1884     2.0238     0.0212 C.2     
  14 C14           -8.4098     2.3370    -0.4344 C.3     
  15 O15           -7.9054     3.3852     0.4199 O.3     
  16 N16           -6.4993     3.1866     0.4830 N.2     
  17 N17            1.2019    -0.7053     0.4178 N.pl3   
  18 C18            1.7503    -1.2428     1.5534 C.2     
  19 C19            2.9180    -1.8084     1.1928 C.2     
  20 N20            3.0830    -1.6243    -0.1255 N.2     
  21 C21            2.0593    -0.9695    -0.6021 C.2     
  22 C22           -8.6510     2.8568    -1.8281 C.ar    
  23 C23           -9.1204     4.1438    -2.0137 C.ar    
  24 C24           -8.3973     2.0482    -2.9204 C.ar    
  25 C25           -8.6173     2.5242    -4.1990 C.ar    
  26 C26           -9.0924     3.8112    -4.3859 C.ar    
  27 C27           -9.3416     4.6218    -3.2914 C.ar    
  28 F28           -9.3078     4.2775    -5.6355 F       
  29 C29           -9.6902     1.7351     0.1481 C.3     
  30 O30            1.0581     1.7566    -0.8515 O.3     
  31 C31            3.8744    -2.5239     2.1117 C.3     
  32 C32            0.9296     3.0265    -1.4941 C.3     
  33 C33           -5.6149     0.2815    -2.5945 C.3     
  34 O34           -4.3492    -0.1684    -3.0855 O.3     
  35 C35           -4.3004    -1.5728    -3.3508 C.3     
  36 C36           -4.6233    -2.3410    -2.0665 C.3     
  37 N37           -5.9376    -1.9147    -1.5643 N.3     
  38 H38           -1.1205    -1.5294     1.3688 H       
  39 H39           -3.2600    -0.3326     1.2106 H       
  40 H40           -1.3122     2.8587    -0.8994 H       
  41 H41           -3.9217    -0.4906    -0.5662 H       
  42 H42           -5.1679    -0.6185     0.7035 H       
  43 H43           -3.7254     3.1393     0.0534 H       
  44 H44           -8.0642    -0.1962    -1.6315 H       
  45 H45           -7.6338    -0.6667     0.0305 H       
  46 H46            1.3273    -1.2171     2.5468 H       
  47 H47            1.9203    -0.6805    -1.6334 H       
  48 H48           -9.3147     4.7759    -1.1598 H       
  49 H49           -8.0267     1.0444    -2.7744 H       
  50 H50           -8.4184     1.8926    -5.0522 H       
  51 H51           -9.7125     5.6257    -3.4359 H       
  52 H52           -9.5075     1.4158     1.1741 H       
  53 H53          -10.4819     2.4842     0.1362 H       
  54 H54           -9.9933     0.8765    -0.4511 H       
  55 H55            3.6188    -3.5828     2.1491 H       
  56 H56            4.8919    -2.4087     1.7381 H       
  57 H57            3.8043    -2.0976     3.1124 H       
  58 H58            0.2231     2.9458    -2.3203 H       
  59 H59            0.5665     3.7619    -0.7761 H       
  60 H60            1.9010     3.3404    -1.8761 H       
  61 H61           -6.3853     0.0847    -3.3401 H       
  62 H62           -5.5676     1.3516    -2.3929 H       
  63 H63           -5.0322    -1.8238    -4.1187 H       
  64 H64           -3.3026    -1.8436    -3.6958 H       
  65 H65           -4.6434    -3.4103    -2.2771 H       
  66 H66           -3.8613    -2.1315    -1.3157 H       
  67 H67           -6.1949    -2.4340    -0.7383 H       
@<TRIPOS>BOND
   1    1    2 ar
   2    1   30 1
   3    1    6 ar
   4    2    3 ar
   5    2   17 1
   6    3    4 ar
   7    3   38 1
   8    4    5 ar
   9    4   39 1
  10    5    6 ar
  11    5    9 1
  12    6   40 1
  13    7    8 1
  14    7   10 1
  15    7   41 1
  16    7   42 1
  17    8    9 2
  18    8   13 1
  19    9   43 1
  20   10   11 1
  21   10   33 1
  22   10   37 1
  23   11   12 1
  24   11   44 1
  25   11   45 1
  26   12   13 1
  27   12   14 1
  28   13   16 2
  29   14   15 1
  30   14   22 1
  31   14   29 1
  32   15   16 1
  33   17   18 1
  34   17   21 1
  35   18   19 2
  36   18   46 1
  37   19   20 1
  38   19   31 1
  39   20   21 2
  40   21   47 1
  41   22   23 ar
  42   22   24 ar
  43   23   27 ar
  44   23   48 1
  45   24   25 ar
  46   24   49 1
  47   25   26 ar
  48   25   50 1
  49   26   27 ar
  50   26   28 1
  51   27   51 1
  52   29   52 1
  53   29   53 1
  54   29   54 1
  55   30   32 1
  56   31   55 1
  57   31   56 1
  58   31   57 1
  59   32   58 1
  60   32   59 1
  61   32   60 1
  62   33   34 1
  63   33   61 1
  64   33   62 1
  65   34   35 1
  66   35   36 1
  67   35   63 1
  68   35   64 1
  69   36   37 1
  70   36   65 1
  71   36   66 1
  72   37   67 1

#	End of record

