#	Name: ASD00431147
#	Creating user name:	WinNT
#	Creation time:	15. 06. 2019 18:35

#	Modifying user name:	WinNT
#	Modification time:	15. 06. 2019 18:35

#	Program:	/corina/corina34_cracker 3.40 0067  02.08.2006

@<TRIPOS>MOLECULE
ASD00431147
  50   53    0    0    0
SMALL
NO_CHARGES


@<TRIPOS>ATOM
   1 C1            -0.3092     2.6954    -1.5961 C.2     
   2 C2            -0.4242     1.2374    -1.9596 C.3     
   3 O3             0.7805     3.1830    -1.3823 O.2     
   4 N4            -1.4169     3.4588    -1.5140 N.am    
   5 C5            -1.3052     4.8761    -1.1606 C.3     
   6 C6            -1.0126     5.6942    -2.4200 C.3     
   7 O7            -3.8378     5.0118    -0.9404 O.3     
   8 N8            -4.6849     5.5404    -0.2586 N.2     
   9 C9            -4.1473     6.2911     0.6748 C.2     
  10 C10           -2.7364     6.1796     0.5062 C.2     
  11 C11           -2.5995     5.3443    -0.5470 C.2     
  12 S12           -4.1125     8.0908     2.9348 S.3     
  13 C13           -5.6557     8.5339     3.5218 C.2     
  14 N14           -6.5855     7.9611     2.8211 N.2     
  15 C15           -6.1987     7.1819     1.8351 C.2     
  16 C16           -4.8599     7.0896     1.6926 C.2     
  17 O17           -5.8762     9.3636     4.5691 O.3     
  18 C18           -7.1579     9.5326     4.9908 C.ar    
  19 C19           -7.4533    10.4961     5.9460 C.ar    
  20 C20           -8.7560    10.6676     6.3738 C.ar    
  21 C21           -9.7680     9.8772     5.8488 C.ar    
  22 C22           -9.4725     8.9147     4.8951 C.ar    
  23 C23           -8.1710     8.7467     4.4628 C.ar    
  24 O24          -11.0499    10.0459     6.2697 O.3     
  25 O25          -12.5636    13.0032     7.5197 O.3     
  26 C26          -11.5176    12.4014     6.7481 C.3     
  27 C27          -11.2689    10.9893     7.3205 C.3     
  28 C28          -12.6024    10.6937     8.0596 C.3     
  29 C29          -12.9788    12.1094     8.5648 C.3     
  30 Cl30          -6.1864    11.4846     6.6030 Cl      
  31 H31            0.5691     0.7890    -1.9812 H       
  32 H32           -1.0379     0.7255    -1.2185 H       
  33 H33           -0.8867     1.1433    -2.9421 H       
  34 H34           -2.2881     3.0697    -1.6889 H       
  35 H35           -0.4945     5.0092    -0.4444 H       
  36 H36           -0.0764     5.3555    -2.8639 H       
  37 H37           -1.8233     5.5611    -3.1363 H       
  38 H38           -0.9295     6.7487    -2.1571 H       
  39 H39           -1.9575     6.6530     1.0855 H       
  40 H40           -6.8934     6.6598     1.1939 H       
  41 H41           -8.9863    11.4167     7.1170 H       
  42 H42          -10.2605     8.2991     4.4872 H       
  43 H43           -7.9420     8.0003     3.7166 H       
  44 H44          -11.8231    12.3287     5.7043 H       
  45 H45          -10.6090    12.9981     6.8280 H       
  46 H46          -10.4294    10.9949     8.0157 H       
  47 H47          -13.3557    10.3088     7.3721 H       
  48 H48          -12.4464    10.0080     8.8924 H       
  49 H49          -12.4469    12.3350     9.4891 H       
  50 H50          -14.0553    12.1821     8.7193 H       
@<TRIPOS>BOND
   1    1    2 1
   2    1    3 2
   3    1    4 am
   4    2   31 1
   5    2   32 1
   6    2   33 1
   7    4    5 1
   8    4   34 1
   9    5    6 1
  10    5   11 1
  11    5   35 1
  12    6   36 1
  13    6   37 1
  14    6   38 1
  15    7    8 1
  16    7   11 1
  17    8    9 2
  18    9   10 1
  19    9   16 1
  20   10   11 2
  21   10   39 1
  22   12   13 1
  23   12   16 1
  24   13   14 2
  25   13   17 1
  26   14   15 1
  27   15   16 2
  28   15   40 1
  29   17   18 1
  30   18   19 ar
  31   18   23 ar
  32   19   20 ar
  33   19   30 1
  34   20   21 ar
  35   20   41 1
  36   21   22 ar
  37   21   24 1
  38   22   23 ar
  39   22   42 1
  40   23   43 1
  41   24   27 1
  42   25   26 1
  43   25   29 1
  44   26   27 1
  45   26   44 1
  46   26   45 1
  47   27   28 1
  48   27   46 1
  49   28   29 1
  50   28   47 1
  51   28   48 1
  52   29   49 1
  53   29   50 1

#	End of record

