#	Name: ASD01881602
#	Creating user name:	WinNT
#	Creation time:	15. 06. 2019 19:43

#	Modifying user name:	WinNT
#	Modification time:	15. 06. 2019 19:43

#	Program:	/corina/corina34_cracker 3.40 0067  02.08.2006

@<TRIPOS>MOLECULE
ASD01881602
  53   56    0    0    0
SMALL
NO_CHARGES


@<TRIPOS>ATOM
   1 C1            -0.0168     1.3907     0.0097 C.ar    
   2 C2             0.0021    -0.0041     0.0020 C.ar    
   3 C3             1.2203    -0.6649    -0.0131 C.ar    
   4 C4             2.3826     0.0877    -0.0202 C.ar    
   5 C5             2.2942     1.4803    -0.0119 C.ar    
   6 N6             1.1153     2.0826     0.0026 N.ar    
   7 C7            -1.2705     2.0827     0.0194 C.1     
   8 N8            -2.2651     2.6316     0.0270 N.1     
   9 C9             3.5344     2.2946    -0.0193 C.ar    
  10 C10            3.4575     3.6862    -0.0111 C.ar    
  11 C11            4.6143     4.4385    -0.0176 C.ar    
  12 C12            5.8487     3.8140    -0.0322 C.ar    
  13 C13            5.9309     2.4334    -0.0409 C.ar    
  14 C14            4.7803     1.6708    -0.0287 C.ar    
  15 C15            4.5328     5.9433    -0.0092 C.3     
  16 O16            4.5191     6.4121     1.3406 O.3     
  17 N17            4.2372    11.7863     2.3616 N.pl3   
  18 N18            4.2545    11.6790     3.7602 N.2     
  19 N19            4.3240    10.4385     4.0935 N.2     
  20 C20            4.3570     9.6591     2.9942 C.ar    
  21 C21            4.3024    10.5022     1.8708 C.ar    
  22 C22            4.4310     8.2720     2.8061 C.ar    
  23 C23            4.4478     7.7574     1.5263 C.ar    
  24 C24            4.3928     8.6055     0.4229 C.ar    
  25 C25            4.3218     9.9598     0.5908 C.ar    
  26 C26            4.1588    13.0216     1.5779 C.3     
  27 C27            5.5715    13.5355     1.2933 C.3     
  28 C28            6.3491    12.4798     0.5048 C.3     
  29 C29            5.4897    14.8256     0.4749 C.3     
  30 C30            6.2886    13.8151     2.6156 C.3     
  31 Br31           4.5063     7.1128     4.2982 Br      
  32 H32           -0.9222    -0.5628     0.0082 H       
  33 H33            1.2622    -1.7440    -0.0190 H       
  34 H34            3.3472    -0.3980    -0.0316 H       
  35 H35            2.4944     4.1747    -0.0000 H       
  36 H36            6.7515     4.4067    -0.0373 H       
  37 H37            6.8971     1.9510    -0.0530 H       
  38 H38            4.8457     0.5928    -0.0309 H       
  39 H39            5.3972     6.3568    -0.5287 H       
  40 H40            3.6200     6.2605    -0.5133 H       
  41 H41            4.4071     8.1895    -0.5737 H       
  42 H42            4.2798    10.6090    -0.2712 H       
  43 H43            3.6480    12.8224     0.6359 H       
  44 H44            3.6049    13.7737     2.1397 H       
  45 H45            5.8382    12.2806    -0.4372 H       
  46 H46            7.3555    12.8459     0.3020 H       
  47 H47            6.4074    11.5607     1.0879 H       
  48 H48            4.9357    15.5777     1.0366 H       
  49 H49            6.4961    15.1917     0.2721 H       
  50 H50            4.9788    14.6264    -0.4672 H       
  51 H51            6.3469    12.8960     3.1987 H       
  52 H52            7.2950    14.1812     2.4129 H       
  53 H53            5.7347    14.5672     3.1774 H       
@<TRIPOS>BOND
   1    1    2 ar
   2    1    6 ar
   3    1    7 1
   4    2    3 ar
   5    2   32 1
   6    3    4 ar
   7    3   33 1
   8    4    5 ar
   9    4   34 1
  10    5    6 ar
  11    5    9 1
  12    7    8 3
  13    9   10 ar
  14    9   14 ar
  15   10   11 ar
  16   10   35 1
  17   11   12 ar
  18   11   15 1
  19   12   13 ar
  20   12   36 1
  21   13   14 ar
  22   13   37 1
  23   14   38 1
  24   15   16 1
  25   15   39 1
  26   15   40 1
  27   16   23 1
  28   17   18 1
  29   17   21 1
  30   17   26 1
  31   18   19 2
  32   19   20 1
  33   20   21 ar
  34   20   22 ar
  35   21   25 ar
  36   22   23 ar
  37   22   31 1
  38   23   24 ar
  39   24   25 ar
  40   24   41 1
  41   25   42 1
  42   26   27 1
  43   26   43 1
  44   26   44 1
  45   27   28 1
  46   27   29 1
  47   27   30 1
  48   28   45 1
  49   28   46 1
  50   28   47 1
  51   29   48 1
  52   29   49 1
  53   29   50 1
  54   30   51 1
  55   30   52 1
  56   30   53 1

#	End of record

