#	Name: ASD03091440
#	Creating user name:	WinNT
#	Creation time:	15. 06. 2019 20:30

#	Modifying user name:	WinNT
#	Modification time:	15. 06. 2019 20:30

#	Program:	/corina/corina34_cracker 3.40 0067  02.08.2006

@<TRIPOS>MOLECULE
ASD03091440
  30   32    0    0    0
SMALL
NO_CHARGES


@<TRIPOS>ATOM
   1 C1            -0.0126     1.4627    -0.0318 C.3     
   2 C2             0.0609    -0.0641    -0.0990 C.3     
   3 N3             0.7602    -0.5747     1.0870 N.3     
   4 C4             0.0372    -0.2303     2.3180 C.3     
   5 C5            -0.0375     1.2913     2.4592 C.3     
   6 C6             1.3820     1.8643     2.5291 C.3     
   7 N7             2.0586     1.6067     1.2506 N.am    
   8 C8             1.4075     2.0374     0.0060 C.3     
   9 C9            -0.7564     1.8787     1.2409 C.3     
  10 C10            3.2546     0.9861     1.2201 C.2     
  11 O11            3.7516     0.6760     0.1546 O.2     
  12 O12            5.0862    -0.0490     2.6085 O.3     
  13 C13            3.9605     0.6832     2.4789 C.2     
  14 N14            3.6105     1.0767     3.6816 N.2     
  15 N15            4.4592     0.6259     4.5375 N.2     
  16 C16            5.3776    -0.0685     3.9158 C.2     
  17 H17           -0.5370     1.8421    -0.9088 H       
  18 H18           -0.9481    -0.4752    -0.1307 H       
  19 H19            0.6027    -0.3625    -0.9966 H       
  20 H20            0.9061    -1.5708     1.0200 H       
  21 H21           -0.9715    -0.6409     2.2735 H       
  22 H22            0.5620    -0.6494     3.1765 H       
  23 H23           -0.5800     1.5475     3.3692 H       
  24 H24            1.3342     2.9386     2.7074 H       
  25 H25            1.9316     1.3816     3.3373 H       
  26 H26            1.9738     1.6687    -0.8493 H       
  27 H27            1.3621     3.1260    -0.0250 H       
  28 H28           -0.7703     2.9661     1.3156 H       
  29 H29           -1.7786     1.5023     1.2048 H       
  30 H30            6.2187    -0.5674     4.3740 H       
@<TRIPOS>BOND
   1    1    2 1
   2    1    8 1
   3    1    9 1
   4    1   17 1
   5    2    3 1
   6    2   18 1
   7    2   19 1
   8    3    4 1
   9    3   20 1
  10    4    5 1
  11    4   21 1
  12    4   22 1
  13    5    6 1
  14    5    9 1
  15    5   23 1
  16    6    7 1
  17    6   24 1
  18    6   25 1
  19    7    8 1
  20    7   10 am
  21    8   26 1
  22    8   27 1
  23    9   28 1
  24    9   29 1
  25   10   11 2
  26   10   13 1
  27   12   13 1
  28   12   16 1
  29   13   14 2
  30   14   15 1
  31   15   16 2
  32   16   30 1

#	End of record

