#	Name: ASD09120014
#	Creating user name:	WinNT
#	Creation time:	15. 06. 2019 21:21

#	Modifying user name:	WinNT
#	Modification time:	15. 06. 2019 21:21

#	Program:	/corina/corina34_cracker 3.40 0067  02.08.2006

@<TRIPOS>MOLECULE
ASD09120014
  39   41    0    0    0
SMALL
NO_CHARGES


@<TRIPOS>ATOM
   1 C1            -0.5968     1.4105    -0.4416 C.ar    
   2 C2            -0.6957     0.0378    -0.5347 C.ar    
   3 C3            -0.0389    -0.7704     0.3765 C.ar    
   4 C4             0.7211    -0.2093     1.3868 C.ar    
   5 C5             0.8292     1.1635     1.4922 C.ar    
   6 C6             0.1686     1.9849     0.5748 C.ar    
   7 N7            -1.5070    -0.5723    -1.6119 N.pl3   
   8 O8            -2.0861     0.1375    -2.4146 O.2     
   9 O9            -1.5954    -1.7842    -1.6957 O.2     
  10 C10            0.2793     3.4544     0.6802 C.2     
  11 O11            0.9467     3.9517     1.5665 O.2     
  12 N12           -0.3594     4.2437    -0.2061 N.am    
  13 C13           -0.3344     5.6349    -0.0498 C.ar    
  14 Cl14           1.7824     1.8667     2.7613 Cl      
  15 C15            0.8247     7.6290     0.6071 C.ar    
  16 C16            0.8007     6.2571     0.4532 C.ar    
  17 C17           -1.4425     6.3937    -0.4031 C.ar    
  18 C18           -1.4172     7.7655    -0.2487 C.ar    
  19 C19           -0.2849     8.3860     0.2593 C.ar    
  20 C20           -1.0032    11.6484     1.6177 C.ar    
  21 C21           -1.5076     9.4398     2.4159 C.ar    
  22 C22           -0.9187    10.2709     1.4736 C.ar    
  23 C23           -1.6730    12.1888     2.6981 C.ar    
  24 C24           -2.2590    11.3584     3.6357 C.ar    
  25 C25           -2.1762     9.9854     3.4945 C.ar    
  26 O26           -0.2608     9.7368     0.4115 O.3     
  27 H27           -1.1069     2.0394    -1.1562 H       
  28 H28           -0.1204    -1.8445     0.2987 H       
  29 H29            1.2308    -0.8460     2.0948 H       
  30 H30           -0.8365     3.8479    -0.9522 H       
  31 H31            1.7073     8.1130     0.9987 H       
  32 H32            1.6643     5.6680     0.7243 H       
  33 H33           -2.3238     5.9109    -0.7989 H       
  34 H34           -2.2788     8.3558    -0.5238 H       
  35 H35           -0.5419    12.2975     0.8880 H       
  36 H36           -1.4436     8.3673     2.3059 H       
  37 H37           -1.7388    13.2609     2.8109 H       
  38 H38           -2.7822    11.7830     4.4797 H       
  39 H39           -2.6351     9.3390     4.2280 H       
@<TRIPOS>BOND
   1    1    2 ar
   2    1    6 ar
   3    1   27 1
   4    2    3 ar
   5    2    7 1
   6    3    4 ar
   7    3   28 1
   8    4    5 ar
   9    4   29 1
  10    5    6 ar
  11    5   14 1
  12    6   10 1
  13    7    8 2
  14    7    9 2
  15   10   11 2
  16   10   12 am
  17   12   13 1
  18   12   30 1
  19   13   17 ar
  20   13   16 ar
  21   15   16 ar
  22   15   19 ar
  23   15   31 1
  24   16   32 1
  25   17   18 ar
  26   17   33 1
  27   18   19 ar
  28   18   34 1
  29   19   26 1
  30   20   23 ar
  31   20   22 ar
  32   20   35 1
  33   21   22 ar
  34   21   25 ar
  35   21   36 1
  36   22   26 1
  37   23   24 ar
  38   23   37 1
  39   24   25 ar
  40   24   38 1
  41   25   39 1

#	End of record

