#	Name: ASD02508077
#	Creating user name:	WinNT
#	Creation time:	15. 06. 2019 20:23

#	Modifying user name:	WinNT
#	Modification time:	15. 06. 2019 20:23

#	Program:	/corina/corina34_cracker 3.40 0067  02.08.2006

@<TRIPOS>MOLECULE
ASD02508077
  39   41    0    0    0
SMALL
NO_CHARGES


@<TRIPOS>ATOM
   1 C1            -0.0119     1.3907    -0.0067 C.ar    
   2 C2             0.0073     0.0097     0.1100 C.ar    
   3 C3             1.1821     2.0999    -0.1340 C.ar    
   4 C4             2.3894     1.4196    -0.1433 C.ar    
   5 C5             2.4043     0.0375    -0.0259 C.ar    
   6 C6             1.2116    -0.6655     0.1002 C.ar    
   7 N7            -1.0411     2.3352    -0.0353 N.am    
   8 C8            -0.4718     3.5495    -0.1683 C.2     
   9 O9             0.8622     3.4138    -0.2289 O.3     
  10 N10            3.6223    -0.6505    -0.0351 N.am    
  11 S11            4.9592     0.0231     0.6729 S.o2    
  12 C12            4.5803     0.2669     2.3763 C.ar    
  13 C13            4.8506    -0.7310     3.2940 C.ar    
  14 O14           -1.0737     4.6044    -0.2285 O.2     
  15 O15            5.9790    -0.9653     0.6261 O.2     
  16 C16            1.2332    -2.1670     0.2274 C.3     
  17 C17            4.0182     1.4583     2.7955 C.ar    
  18 C18            3.7212     1.6501     4.1317 C.ar    
  19 C19            3.9866     0.6498     5.0495 C.ar    
  20 C20            4.5535    -0.5402     4.6303 C.ar    
  21 O21            5.1047     1.3175     0.1049 O.2     
  22 C22           -2.4761     2.0566     0.0612 C.3     
  23 C23           -2.9030     2.0822     1.5302 C.3     
  24 Br24           3.5811     0.9119     6.8778 Br      
  25 H25           -0.9186    -0.5375     0.2089 H       
  26 H26            3.3167     1.9643    -0.2420 H       
  27 H27            3.6838    -1.5222    -0.4562 H       
  28 H28            5.2935    -1.6600     2.9666 H       
  29 H29            1.2951    -2.4416     1.2805 H       
  30 H30            0.3216    -2.5813    -0.2032 H       
  31 H31            2.0987    -2.5641    -0.3030 H       
  32 H32            3.8114     2.2393     2.0789 H       
  33 H33            3.2824     2.5810     4.4592 H       
  34 H34            4.7609    -1.3215     5.3466 H       
  35 H35           -3.0313     2.8142    -0.4918 H       
  36 H36           -2.6845     1.0733    -0.3606 H       
  37 H37           -3.9707     1.8750     1.6020 H       
  38 H38           -2.3478     1.3246     2.0832 H       
  39 H39           -2.6947     3.0655     1.9520 H       
@<TRIPOS>BOND
   1    1    2 ar
   2    1    3 ar
   3    1    7 1
   4    2    6 ar
   5    2   25 1
   6    3    4 ar
   7    3    9 1
   8    4    5 ar
   9    4   26 1
  10    5    6 ar
  11    5   10 1
  12    6   16 1
  13    7    8 am
  14    7   22 1
  15    8    9 1
  16    8   14 2
  17   10   11 am
  18   10   27 1
  19   11   12 1
  20   11   15 2
  21   11   21 2
  22   12   13 ar
  23   12   17 ar
  24   13   20 ar
  25   13   28 1
  26   16   29 1
  27   16   30 1
  28   16   31 1
  29   17   18 ar
  30   17   32 1
  31   18   19 ar
  32   18   33 1
  33   19   20 ar
  34   19   24 1
  35   20   34 1
  36   22   23 1
  37   22   35 1
  38   22   36 1
  39   23   37 1
  40   23   38 1
  41   23   39 1

#	End of record

