#	Name: ASD02448063
#	Creating user name:	WinNT
#	Creation time:	15. 06. 2019 20:21

#	Modifying user name:	WinNT
#	Modification time:	15. 06. 2019 20:21

#	Program:	/corina/corina34_cracker 3.40 0067  02.08.2006

@<TRIPOS>MOLECULE
ASD02448063
  81   86    0    0    0
SMALL
NO_CHARGES


@<TRIPOS>ATOM
   1 C1            -0.0298    -6.5894     3.1680 C.ar    
   2 C2             0.4431    -5.4573     2.5330 C.ar    
   3 C3             0.3668    -5.3515     1.1501 C.ar    
   4 C4            -0.1844    -6.3840     0.4062 C.ar    
   5 C5            -0.6585    -7.5206     1.0467 C.ar    
   6 C6            -0.5797    -7.6201     2.4303 C.ar    
   7 N7            -1.2148    -8.5626     0.3012 N.am    
   8 C8            -1.3048    -9.9832     0.6629 C.3     
   9 C9            -1.9754   -10.7763    -0.4119 C.2     
  10 N10           -2.3605   -10.0626    -1.4792 N.am    
  11 S11           -1.9359    -8.4773    -1.2008 S.o2    
  12 O12           -2.1567   -11.9724    -0.3253 O.2     
  13 O13           -3.1416    -7.7399    -1.0539 O.2     
  14 O14           -0.9131    -8.1477    -2.1307 O.2     
  15 N15            0.8463    -4.2017     0.5069 N.pl3   
  16 C16            1.7863    -4.1602    -0.4881 C.2     
  17 C17            0.4602    -2.9217     0.7508 C.2     
  18 N18            1.1221    -2.1238    -0.0397 N.2     
  19 C19            1.9489    -2.8522    -0.8173 C.2     
  20 C20            2.8722    -2.3196    -1.8492 C.ar    
  21 C21            2.4135    -1.3994    -2.7911 C.ar    
  22 C22            4.2037    -2.7329    -1.8775 C.ar    
  23 C23            5.0586    -2.2330    -2.8405 C.ar    
  24 C24            4.5965    -1.3241    -3.7751 C.ar    
  25 C25            3.2781    -0.9068    -3.7491 C.ar    
  26 C26           -0.5654    -2.4944     1.7689 C.3     
  27 C27           -1.9084    -2.3524     1.0999 C.ar    
  28 C28           -2.8051    -3.4053     1.1245 C.ar    
  29 C29           -2.2419    -1.1678     0.4685 C.ar    
  30 C30           -3.4704    -1.0324    -0.1457 C.ar    
  31 C31           -4.3754    -2.0917    -0.1289 C.ar    
  32 C32           -4.0364    -3.2808     0.5135 C.ar    
  33 C33           -5.6978    -1.9519    -0.7876 C.ar    
  34 C34           -6.6019    -3.0111    -0.7705 C.ar    
  35 C35           -6.0407    -0.7586    -1.4200 C.ar    
  36 C36           -7.2716    -0.6309    -2.0322 C.ar    
  37 C37           -8.1663    -1.6842    -2.0199 C.ar    
  38 C38           -7.8346    -2.8745    -1.3871 C.ar    
  39 Cl39           0.7590    -0.8744    -2.7601 Cl      
  40 Cl40           4.7858    -3.8727    -0.7047 Cl      
  41 O41           -8.7174    -3.9078    -1.3774 O.3     
  42 C42           -9.9674    -3.6994    -2.0376 C.3     
  43 C43          -10.8222    -4.9631    -1.9221 C.3     
  44 C44          -12.1606    -4.7399    -2.6290 C.3     
  45 C45          -11.9113    -4.4260    -4.1056 C.3     
  46 C46          -13.0153    -6.0036    -2.5135 C.3     
  47 C47          -12.8935    -3.5669    -1.9749 C.3     
  48 H48            0.0345    -6.6708     4.2430 H       
  49 H49            0.8723    -4.6534     3.1125 H       
  50 H50           -0.2450    -6.3037    -0.6691 H       
  51 H51           -0.9480    -8.5042     2.9294 H       
  52 H52           -0.3003   -10.3754     0.8220 H       
  53 H53           -1.8746   -10.0809     1.5870 H       
  54 H54           -2.8077   -10.4065    -2.2683 H       
  55 H55            2.2994    -5.0037    -0.9258 H       
  56 H56            6.0901    -2.5523    -2.8635 H       
  57 H57            5.2689    -0.9359    -4.5258 H       
  58 H58            2.9231    -0.1969    -4.4816 H       
  59 H59           -0.6296    -3.2446     2.5570 H       
  60 H60           -0.2718    -1.5377     2.2010 H       
  61 H61           -2.5412    -4.3266     1.6224 H       
  62 H62           -1.5398    -0.3472     0.4564 H       
  63 H63           -3.7300    -0.1068    -0.6381 H       
  64 H64           -4.7340    -4.1051     0.5292 H       
  65 H65           -6.3424    -3.9367    -0.2781 H       
  66 H66           -5.3438     0.0665    -1.4310 H       
  67 H67           -7.5362     0.2948    -2.5217 H       
  68 H68           -9.1280    -1.5795    -2.5002 H       
  69 H69          -10.4895    -2.8637    -1.5716 H       
  70 H70           -9.7898    -3.4757    -3.0896 H       
  71 H71          -10.3000    -5.7987    -2.3881 H       
  72 H72          -10.9997    -5.1867    -0.8702 H       
  73 H73          -11.3892    -5.2616    -4.5716 H       
  74 H74          -12.8648    -4.2669    -4.6092 H       
  75 H75          -11.3024    -3.5257    -4.1879 H       
  76 H76          -13.1929    -6.2272    -1.4616 H       
  77 H77          -13.9688    -5.8445    -3.0171 H       
  78 H78          -12.4932    -6.8392    -2.9795 H       
  79 H79          -12.2845    -2.6666    -2.0572 H       
  80 H80          -13.8470    -3.4079    -2.4786 H       
  81 H81          -13.0710    -3.7905    -0.9230 H       
@<TRIPOS>BOND
   1    1    2 ar
   2    1    6 ar
   3    1   48 1
   4    2    3 ar
   5    2   49 1
   6    3    4 ar
   7    3   15 1
   8    4    5 ar
   9    4   50 1
  10    5    6 ar
  11    5    7 1
  12    6   51 1
  13    7    8 1
  14    7   11 am
  15    8    9 1
  16    8   52 1
  17    8   53 1
  18    9   10 am
  19    9   12 2
  20   10   11 am
  21   10   54 1
  22   11   13 2
  23   11   14 2
  24   15   16 1
  25   15   17 1
  26   16   19 2
  27   16   55 1
  28   17   18 2
  29   17   26 1
  30   18   19 1
  31   19   20 1
  32   20   21 ar
  33   20   22 ar
  34   21   39 1
  35   21   25 ar
  36   22   23 ar
  37   22   40 1
  38   23   24 ar
  39   23   56 1
  40   24   25 ar
  41   24   57 1
  42   25   58 1
  43   26   27 1
  44   26   59 1
  45   26   60 1
  46   27   28 ar
  47   27   29 ar
  48   28   32 ar
  49   28   61 1
  50   29   30 ar
  51   29   62 1
  52   30   31 ar
  53   30   63 1
  54   31   32 ar
  55   31   33 1
  56   32   64 1
  57   33   34 ar
  58   33   35 ar
  59   34   38 ar
  60   34   65 1
  61   35   36 ar
  62   35   66 1
  63   36   37 ar
  64   36   67 1
  65   37   38 ar
  66   37   68 1
  67   38   41 1
  68   41   42 1
  69   42   43 1
  70   42   69 1
  71   42   70 1
  72   43   44 1
  73   43   71 1
  74   43   72 1
  75   44   45 1
  76   44   46 1
  77   44   47 1
  78   45   73 1
  79   45   74 1
  80   45   75 1
  81   46   76 1
  82   46   77 1
  83   46   78 1
  84   47   79 1
  85   47   80 1
  86   47   81 1

#	End of record

