#	Name: ASD01940268
#	Creating user name:	WinNT
#	Creation time:	15. 06. 2019 20:12

#	Modifying user name:	WinNT
#	Modification time:	15. 06. 2019 20:12

#	Program:	/corina/corina34_cracker 3.40 0067  02.08.2006

@<TRIPOS>MOLECULE
ASD01940268
  46   47    0    0    0
SMALL
NO_CHARGES


@<TRIPOS>ATOM
   1 C1            -0.2621    -0.1050     0.4532 C.3     
   2 C2            -0.8503    -0.0559     1.8017 C.1     
   3 N3            -1.3042    -0.0180     2.8424 N.1     
   4 C4            -0.0602    -1.5636     0.0377 C.3     
   5 N5             0.4482    -1.6145    -1.3396 N.3     
   6 S6             1.1350    -2.3501     1.1529 S.3     
   7 C7             0.3469    -3.8695     1.5708 C.ar    
   8 C8             0.8986    -4.6984     2.5481 C.ar    
   9 C9             0.2731    -5.8924     2.8724 C.ar    
  10 C10           -0.8940    -6.2591     2.2276 C.ar    
  11 C11           -1.4410    -5.4378     1.2590 C.ar    
  12 C12           -0.8273    -4.2427     0.9331 C.ar    
  13 N13            2.0808    -4.3257     3.1991 N.pl3   
  14 C14           -1.2026     0.5823    -0.5387 C.3     
  15 C15           -2.5325    -0.0448    -0.4692 C.1     
  16 N16           -3.5588    -0.5288    -0.4155 N.1     
  17 C17           -1.3195     2.0665    -0.1861 C.3     
  18 N18            0.0211     2.6650    -0.1360 N.3     
  19 S19           -2.3121     2.9114    -1.4476 S.3     
  20 C20           -3.3420     3.9765    -0.4939 C.ar    
  21 C21           -4.3626     4.7002    -1.1114 C.ar    
  22 C22           -5.1696     5.5361    -0.3550 C.ar    
  23 C23           -4.9616     5.6512     1.0073 C.ar    
  24 C24           -3.9502     4.9341     1.6195 C.ar    
  25 C25           -3.1442     4.0937     0.8742 C.ar    
  26 N26           -4.5709     4.5830    -2.4909 N.pl3   
  27 H27            0.6996     0.4081     0.4574 H       
  28 H28           -1.0117    -2.0924     0.0936 H       
  29 H29           -0.2094    -1.2006    -1.9833 H       
  30 H30            1.3509    -1.1690    -1.4085 H       
  31 H31            0.6974    -6.5364     3.6285 H       
  32 H32           -1.3795    -7.1899     2.4810 H       
  33 H33           -2.3524    -5.7292     0.7582 H       
  34 H34           -1.2597    -3.6015     0.1791 H       
  35 H35            2.5174    -3.4901     2.9709 H       
  36 H36            2.4631    -4.9030     3.8784 H       
  37 H37           -0.8045     0.4790    -1.5482 H       
  38 H38           -1.8011     2.1721     0.7861 H       
  39 H39            0.4552     2.6564    -1.0467 H       
  40 H40           -0.0146     3.6012     0.2387 H       
  41 H41           -5.9605     6.0978    -0.8297 H       
  42 H42           -5.5907     6.3034     1.5948 H       
  43 H43           -3.7918     5.0279     2.6837 H       
  44 H44           -2.3580     3.5317     1.3563 H       
  45 H45           -4.0053     3.9980    -3.0188 H       
  46 H46           -5.2809     5.0868    -2.9187 H       
@<TRIPOS>BOND
   1    1    2 1
   2    1    4 1
   3    1   14 1
   4    1   27 1
   5    2    3 3
   6    4    5 1
   7    4    6 1
   8    4   28 1
   9    5   29 1
  10    5   30 1
  11    6    7 1
  12    7    8 ar
  13    7   12 ar
  14    8    9 ar
  15    8   13 1
  16    9   10 ar
  17    9   31 1
  18   10   11 ar
  19   10   32 1
  20   11   12 ar
  21   11   33 1
  22   12   34 1
  23   13   35 1
  24   13   36 1
  25   14   15 1
  26   14   17 1
  27   14   37 1
  28   15   16 3
  29   17   18 1
  30   17   19 1
  31   17   38 1
  32   18   39 1
  33   18   40 1
  34   19   20 1
  35   20   21 ar
  36   20   25 ar
  37   21   22 ar
  38   21   26 1
  39   22   23 ar
  40   22   41 1
  41   23   24 ar
  42   23   42 1
  43   24   25 ar
  44   24   43 1
  45   25   44 1
  46   26   45 1
  47   26   46 1

#	End of record

