#	Name: ASD01917797
#	Creating user name:	WinNT
#	Creation time:	15. 06. 2019 20:10

#	Modifying user name:	WinNT
#	Modification time:	15. 06. 2019 20:10

#	Program:	/corina/corina34_cracker 3.40 0067  02.08.2006

@<TRIPOS>MOLECULE
ASD01917797
  44   47    0    0    0
SMALL
NO_CHARGES


@<TRIPOS>ATOM
   1 C1            -0.0136     1.3187    -0.0047 C.2     
   2 C2            -0.0103    -0.0282     0.0045 C.2     
   3 C3            -1.2499    -0.8861     0.0241 C.3     
   4 C4            -2.4379    -0.0295     0.4797 C.3     
   5 N5            -2.4044     1.2578    -0.2304 N.am    
   6 C6            -1.2651     2.1612     0.0135 C.3     
   7 C7            -3.3897     1.6029    -1.0828 C.2     
   8 O8            -4.2642     0.8043    -1.3561 O.2     
   9 C9            -3.4069     2.9535    -1.6855 C.ar    
  10 O10            1.2630     1.7236    -0.0263 O.3     
  11 C11            2.0355     0.6258    -0.0266 C.2     
  12 N12            1.2679    -0.4294    -0.0076 N.2     
  13 C13            3.5424     0.6138    -0.0462 C.3     
  14 O14            4.0010     0.5986    -1.3995 O.3     
  15 C15            5.3458     0.5864    -1.5951 C.ar    
  16 C16            5.8605     0.5713    -2.8833 C.ar    
  17 C17            7.2279     0.5589    -3.0795 C.ar    
  18 C18            8.0833     0.5614    -1.9932 C.ar    
  19 C19            7.5729     0.5760    -0.7083 C.ar    
  20 C20            6.2063     0.5947    -0.5069 C.ar    
  21 C21           -3.8646     3.1287    -2.9929 C.ar    
  22 C22           -3.8807     4.3862    -3.5543 C.ar    
  23 C23           -3.4392     5.4864    -2.8157 C.ar    
  24 C24           -2.9813     5.3109    -1.5079 C.ar    
  25 C25           -2.9708     4.0540    -0.9449 C.ar    
  26 C26           -3.4554     6.7939    -3.3994 C.1     
  27 N27           -3.4682     7.8312    -3.8624 N.1     
  28 H28           -1.4415    -1.2739    -0.9764 H       
  29 H29           -1.1096    -1.7147     0.7183 H       
  30 H30           -3.3693    -0.5475     0.2512 H       
  31 H31           -2.3708     0.1448     1.5535 H       
  32 H32           -1.3743     2.6417     0.9858 H       
  33 H33           -1.2158     2.9163    -0.7710 H       
  34 H34            3.9193     1.5052     0.4552 H       
  35 H35            3.9054    -0.2746     0.4705 H       
  36 H36            5.1927     0.5689    -3.7321 H       
  37 H37            7.6291     0.5468    -4.0821 H       
  38 H38            9.1521     0.5517    -2.1486 H       
  39 H39            8.2431     0.5773     0.1385 H       
  40 H40            5.8081     0.6061     0.4969 H       
  41 H41           -4.2057     2.2779    -3.5641 H       
  42 H42           -4.2345     4.5216    -4.5658 H       
  43 H43           -2.6395     6.1614    -0.9367 H       
  44 H44           -2.6168     3.9182     0.0664 H       
@<TRIPOS>BOND
   1    1    2 2
   2    1   10 1
   3    1    6 1
   4    2    3 1
   5    2   12 1
   6    3    4 1
   7    3   28 1
   8    3   29 1
   9    4    5 1
  10    4   30 1
  11    4   31 1
  12    5    6 1
  13    5    7 am
  14    6   32 1
  15    6   33 1
  16    7    8 2
  17    7    9 1
  18    9   21 ar
  19    9   25 ar
  20   10   11 1
  21   11   12 2
  22   11   13 1
  23   13   14 1
  24   13   34 1
  25   13   35 1
  26   14   15 1
  27   15   16 ar
  28   15   20 ar
  29   16   17 ar
  30   16   36 1
  31   17   18 ar
  32   17   37 1
  33   18   19 ar
  34   18   38 1
  35   19   20 ar
  36   19   39 1
  37   20   40 1
  38   21   22 ar
  39   21   41 1
  40   22   23 ar
  41   22   42 1
  42   23   26 1
  43   23   24 ar
  44   24   25 ar
  45   24   43 1
  46   25   44 1
  47   26   27 3

#	End of record

