#	Name: ASD03080060
#	Creating user name:	WinNT
#	Creation time:	15. 06. 2019 20:26

#	Modifying user name:	WinNT
#	Modification time:	15. 06. 2019 20:26

#	Program:	/corina/corina34_cracker 3.40 0067  02.08.2006

@<TRIPOS>MOLECULE
ASD03080060
  31   33    0    0    0
SMALL
NO_CHARGES


@<TRIPOS>ATOM
   1 C1            -0.0178     1.4648     0.0101 C.3     
   2 N2             0.0021    -0.0041     0.0020 N.3     
   3 C3             1.3960     1.9864    -0.0006 C.ar    
   4 C4             2.0304     2.2311    -1.2012 C.ar    
   5 C5             3.3394     2.7145    -1.2093 C.ar    
   6 C6             3.9984     2.9474    -0.0010 C.ar    
   7 C7             3.3528     2.6986     1.1923 C.ar    
   8 C8             2.0529     2.2243     1.1933 C.ar    
   9 O9             3.5175     2.8016    -3.7215 O.3     
  10 N10            4.3397     3.1127    -4.5569 N.2     
  11 C11            5.4432     3.5154    -3.9808 C.2     
  12 N12            5.2543     3.4339    -2.6472 N.2     
  13 C13            4.0254     2.9785    -2.4920 C.2     
  14 C14            7.7876     4.3799    -3.9313 C.ar    
  15 C15            6.6760     3.9761    -4.6676 C.ar    
  16 C16            6.7403     4.0113    -6.0627 C.ar    
  17 C17            7.9129     4.4486    -6.6553 C.ar    
  18 C18            8.9727     4.8328    -5.8547 C.ar    
  19 N19            8.8824     4.7881    -4.5393 N.ar    
  20 H20           -0.5450     1.8259    -0.8730 H       
  21 H21           -0.5280     1.8163     0.9069 H       
  22 H22            0.5405    -0.3627     0.7764 H       
  23 H23           -0.9349    -0.3784     0.0090 H       
  24 H24            1.5151     2.0485    -2.1327 H       
  25 H25            5.0117     3.3212    -0.0005 H       
  26 H26            3.8617     2.8780     2.1278 H       
  27 H27            1.5504     2.0350     2.1304 H       
  28 H28            7.7499     4.3619    -2.8521 H       
  29 H29            5.8970     3.7050    -6.6638 H       
  30 H30            7.9988     4.4888    -7.7311 H       
  31 H31            9.8889     5.1743    -6.3133 H       
@<TRIPOS>BOND
   1    1    2 1
   2    1    3 1
   3    1   20 1
   4    1   21 1
   5    2   22 1
   6    2   23 1
   7    3    4 ar
   8    3    8 ar
   9    4    5 ar
  10    4   24 1
  11    5    6 ar
  12    5   13 1
  13    6    7 ar
  14    6   25 1
  15    7    8 ar
  16    7   26 1
  17    8   27 1
  18    9   10 1
  19    9   13 1
  20   10   11 2
  21   11   12 1
  22   11   15 1
  23   12   13 2
  24   14   15 ar
  25   14   19 ar
  26   14   28 1
  27   15   16 ar
  28   16   17 ar
  29   16   29 1
  30   17   18 ar
  31   17   30 1
  32   18   19 ar
  33   18   31 1

#	End of record

