#	Name: ASD05430122
#	Creating user name:	WinNT
#	Creation time:	15. 06. 2019 20:59

#	Modifying user name:	WinNT
#	Modification time:	15. 06. 2019 20:59

#	Program:	/corina/corina34_cracker 3.40 0067  02.08.2006

@<TRIPOS>MOLECULE
ASD05430122
  63   69    0    0    0
SMALL
NO_CHARGES


@<TRIPOS>ATOM
   1 F1             9.4800     5.1090    -4.8235 F       
   2 C2             0.1791     1.1752    -1.0317 C.ar    
   3 C3             0.0197    -0.0134    -0.3174 C.ar    
   4 C4             1.0451    -0.4888     0.4898 C.ar    
   5 C5             2.2264     0.2114     0.5894 C.ar    
   6 C6             2.3920     1.4017    -0.1237 C.ar    
   7 C7             1.3535     1.8793    -0.9386 C.ar    
   8 C8             4.9340    -0.0128    -0.0964 C.3     
   9 C9             4.8238     1.4960     0.0684 C.2     
  10 C10            3.6531     2.1540    -0.0198 C.2     
  11 C11            6.1079    -0.3153    -1.0252 C.3     
  12 C12            7.4522     0.2358    -0.5646 C.3     
  13 N13            7.3138     1.5989    -0.0715 N.pl3   
  14 C14            6.1092     2.1815     0.3345 C.2     
  15 C15            8.6440     3.2974    -1.2228 C.ar    
  16 C16            9.1505     4.5835    -1.2478 C.ar    
  17 C17            9.4317     5.1926    -2.4560 C.ar    
  18 C18            9.2059     4.5143    -3.6418 C.ar    
  19 C19            8.6986     3.2263    -3.6155 C.ar    
  20 C20            8.4231     2.6173    -2.4060 C.ar    
  21 N21           -1.1796    -0.7295    -0.4146 N.pl3   
  22 C22           -1.3105    -2.0688    -0.6782 C.2     
  23 C23           -2.6296    -2.3385    -0.6812 C.2     
  24 N24           -3.2909    -1.1994    -0.4272 N.2     
  25 C25           -2.4336    -0.2297    -0.2598 C.2     
  26 C26           -3.2552    -3.6872    -0.9280 C.3     
  27 N27            6.3229     3.3036     0.9321 N.2     
  28 C28            8.3383     2.6341     0.0953 C.3     
  29 O29            7.7179     3.5678     1.0037 O.3     
  30 C30            9.6093     2.0423     0.7079 C.3     
  31 O31           10.5890     3.0716     0.8589 O.3     
  32 C32            6.1716    -1.7908    -1.4556 C.3     
  33 O33            6.4367    -1.2748    -2.7760 O.3     
  34 C34            5.8017    -0.0094    -2.5017 C.3     
  35 C35            0.8742     2.9506    -1.8815 C.3     
  36 C36           -0.4270     2.1675    -1.9884 C.3     
  37 H37            0.9156    -1.4089     1.0403 H       
  38 H38            3.0232    -0.1583     1.2177 H       
  39 H39            5.1072    -0.4755     0.8752 H       
  40 H40            4.0133    -0.4018    -0.5313 H       
  41 H41            3.6388     3.2338    -0.0144 H       
  42 H42            7.8441    -0.3956     0.2328 H       
  43 H43            8.1491     0.2271    -1.4027 H       
  44 H44            9.3263     5.1124    -0.3227 H       
  45 H45            9.8271     6.1974    -2.4752 H       
  46 H46            8.5220     2.6963    -4.5398 H       
  47 H47            8.0273     1.6126    -2.3852 H       
  48 H48           -0.5092    -2.7721    -0.8508 H       
  49 H49           -2.6799     0.7991    -0.0424 H       
  50 H50           -3.3670    -4.2146     0.0193 H       
  51 H51           -4.2345    -3.5548    -1.3879 H       
  52 H52           -2.6165    -4.2675    -1.5939 H       
  53 H53            9.3776     1.6152     1.6836 H       
  54 H54            9.9992     1.2628     0.0533 H       
  55 H55           11.4230     2.7675     1.2426 H       
  56 H56            7.0061    -2.3414    -1.0214 H       
  57 H57            5.2207    -2.3168    -1.3702 H       
  58 H58            4.7375     0.0104    -2.7367 H       
  59 H59            6.3433     0.8506    -2.8956 H       
  60 H60            0.7614     3.9274    -1.4113 H       
  61 H61            1.4338     2.9918    -2.8160 H       
  62 H62           -0.6116     1.7616    -2.9831 H       
  63 H63           -1.2886     2.6948    -1.5789 H       
@<TRIPOS>BOND
   1    1   18 1
   2    2    3 ar
   3    2    7 ar
   4    2   36 1
   5    3    4 ar
   6    3   21 1
   7    4    5 ar
   8    4   37 1
   9    5    6 ar
  10    5   38 1
  11    6    7 ar
  12    6   10 1
  13    7   35 1
  14    8    9 1
  15    8   11 1
  16    8   39 1
  17    8   40 1
  18    9   10 2
  19    9   14 1
  20   10   41 1
  21   11   12 1
  22   11   32 1
  23   11   34 1
  24   12   13 1
  25   12   42 1
  26   12   43 1
  27   13   14 1
  28   13   28 1
  29   14   27 2
  30   15   16 ar
  31   15   28 1
  32   15   20 ar
  33   16   17 ar
  34   16   44 1
  35   17   18 ar
  36   17   45 1
  37   18   19 ar
  38   19   20 ar
  39   19   46 1
  40   20   47 1
  41   21   22 1
  42   21   25 1
  43   22   23 2
  44   22   48 1
  45   23   24 1
  46   23   26 1
  47   24   25 2
  48   25   49 1
  49   26   50 1
  50   26   51 1
  51   26   52 1
  52   27   29 1
  53   28   29 1
  54   28   30 1
  55   30   31 1
  56   30   53 1
  57   30   54 1
  58   31   55 1
  59   32   33 1
  60   32   56 1
  61   32   57 1
  62   33   34 1
  63   34   58 1
  64   34   59 1
  65   35   36 1
  66   35   60 1
  67   35   61 1
  68   36   62 1
  69   36   63 1

#	End of record

