#	Name: ASD07930712
#	Creating user name:	WinNT
#	Creation time:	15. 06. 2019 21:13

#	Modifying user name:	WinNT
#	Modification time:	15. 06. 2019 21:13

#	Program:	/corina/corina34_cracker 3.40 0067  02.08.2006

@<TRIPOS>MOLECULE
ASD07930712
  42   44    0    0    0
SMALL
NO_CHARGES


@<TRIPOS>ATOM
   1 C1             2.8187    -1.4280    -1.6527 C.3     
   2 N2             2.4360    -3.4559     0.5041 N.2     
   3 N3             0.3068    -3.6974    -0.4282 N.pl3   
   4 C4            -0.9827    -3.0429    -0.1833 C.3     
   5 C5            -1.1098    -1.8171    -1.0983 C.3     
   6 S6             0.3169    -0.7277    -0.7952 S.o2    
   7 N7             1.6082    -1.7753    -0.9042 N.am    
   8 C8             1.4800    -2.9930    -0.2514 C.2     
   9 C9            -1.0609    -2.5993     1.2789 C.3     
  10 O10            0.4988     0.1775    -1.8754 O.2     
  11 O11            0.3324    -0.2803     0.5534 O.2     
  12 C12           -2.1013    -4.0088    -0.4776 C.2     
  13 S13           -3.3743    -4.4567     0.6500 S.3     
  14 C14           -4.0978    -5.5272    -0.5434 C.2     
  15 C15           -3.3717    -5.4905    -1.6783 C.2     
  16 C16           -2.2786    -4.6496    -1.6366 C.2     
  17 C17           -5.3137    -6.3419    -0.3338 C.ar    
  18 C18           -5.9906    -6.3037     0.8877 C.ar    
  19 C19           -7.1351    -7.0938     1.0327 C.ar    
  20 C20           -7.5532    -7.8838    -0.0406 C.ar    
  21 N21           -6.8851    -7.8902    -1.1759 N.ar    
  22 C22           -5.8058    -7.1566    -1.3560 C.ar    
  23 C23           -7.8672    -7.0935     2.2634 C.1     
  24 N24           -8.4480    -7.0932     3.2397 N.1     
  25 F25           -1.6551    -5.4190    -3.7937 F       
  26 F26           -1.4953    -3.1869    -3.3339 F       
  27 C27           -1.3471    -4.4749    -2.8083 C.3     
  28 F28           -0.0261    -4.6566    -2.3850 F       
  29 H29            3.5254    -0.9291    -0.9895 H       
  30 H30            3.2725    -2.3355    -2.0509 H       
  31 H31            2.5588    -0.7609    -2.4746 H       
  32 H32            3.2541    -2.9471     0.6175 H       
  33 H33            0.3349    -4.6251    -0.7102 H       
  34 H34           -1.1141    -2.1356    -2.1407 H       
  35 H35           -2.0335    -1.2843    -0.8725 H       
  36 H36           -0.1907    -1.9890     1.5205 H       
  37 H37           -1.9683    -2.0156     1.4335 H       
  38 H38           -1.0794    -3.4774     1.9245 H       
  39 H39           -3.6276    -6.0704    -2.5527 H       
  40 H40           -5.6394    -5.6815     1.6976 H       
  41 H41           -8.4358    -8.4978     0.0618 H       
  42 H42           -5.2891    -7.1928    -2.3037 H       
@<TRIPOS>BOND
   1    1    7 1
   2    1   29 1
   3    1   30 1
   4    1   31 1
   5    2    8 2
   6    2   32 1
   7    3    4 1
   8    3    8 1
   9    3   33 1
  10    4    5 1
  11    4    9 1
  12    4   12 1
  13    5    6 1
  14    5   34 1
  15    5   35 1
  16    6    7 am
  17    6   10 2
  18    6   11 2
  19    7    8 1
  20    9   36 1
  21    9   37 1
  22    9   38 1
  23   12   13 1
  24   12   16 2
  25   13   14 1
  26   14   15 2
  27   14   17 1
  28   15   16 1
  29   15   39 1
  30   16   27 1
  31   17   18 ar
  32   17   22 ar
  33   18   19 ar
  34   18   40 1
  35   19   20 ar
  36   19   23 1
  37   20   21 ar
  38   20   41 1
  39   21   22 ar
  40   22   42 1
  41   23   24 3
  42   25   27 1
  43   26   27 1
  44   27   28 1

#	End of record

