#	Name: ASD01000075
#	Creating user name:	WinNT
#	Creation time:	15. 06. 2019 18:54

#	Modifying user name:	WinNT
#	Modification time:	15. 06. 2019 18:54

#	Program:	/corina/corina34_cracker 3.40 0067  02.08.2006

@<TRIPOS>MOLECULE
ASD01000075
  51   53    0    0    0
SMALL
NO_CHARGES


@<TRIPOS>ATOM
   1 C1             2.0079     1.3880    -0.4694 C.ar    
   2 C2             1.8701     0.0297    -0.6868 C.ar    
   3 C3             1.4026    -0.7906     0.3235 C.ar    
   4 C4             1.0720    -0.2545     1.5528 C.ar    
   5 C5             1.2098     1.1084     1.7736 C.ar    
   6 C6             1.6790     1.9292     0.7585 C.ar    
   7 C7             1.2531    -2.2708     0.0830 C.3     
   8 C8             1.4533    -2.5644    -1.3815 C.ar    
   9 C9             2.4305    -3.4572    -1.7802 C.ar    
  10 C10            2.6141    -3.7265    -3.1236 C.ar    
  11 C11            1.8202    -3.1034    -4.0682 C.ar    
  12 C12            0.8423    -2.2114    -3.6695 C.ar    
  13 C13            0.6559    -1.9453    -2.3258 C.ar    
  14 S14            2.4934    -3.1696     1.0549 S.3     
  15 C15            4.0489    -2.3738     0.5674 C.3     
  16 C16            5.2229    -3.1058     1.2208 C.3     
  17 C17           -0.1267    -2.7106     0.4995 C.ar    
  18 C18           -0.3400    -4.0093     0.9224 C.ar    
  19 C19           -1.1781    -1.8138     0.4641 C.ar    
  20 C20           -2.4439    -2.2172     0.8462 C.ar    
  21 C21           -2.6584    -3.5176     1.2633 C.ar    
  22 C22           -1.6058    -4.4127     1.3044 C.ar    
  23 N23            5.3032    -4.4735     0.6908 N.3     
  24 C24           -4.0381    -3.9572     1.6803 C.3     
  25 O25            0.8848     1.6384     2.9820 O.3     
  26 C26            6.5040    -2.3730     0.9162 C.2     
  27 O27            7.2321    -2.7690     0.0371 O.2     
  28 O28            6.8362    -1.2804     1.6216 O.3     
  29 H29            2.3772     2.0260    -1.2587 H       
  30 H30            2.1278    -0.3913    -1.6474 H       
  31 H31            0.7062    -0.8954     2.3413 H       
  32 H32            1.7875     2.9903     0.9281 H       
  33 H33            3.0508    -3.9439    -1.0422 H       
  34 H34            3.3781    -4.4234    -3.4351 H       
  35 H35            1.9641    -3.3133    -5.1178 H       
  36 H36            0.2223    -1.7244    -4.4075 H       
  37 H37           -0.1081    -1.2484    -2.0143 H       
  38 H38            4.1536    -2.4144    -0.5168 H       
  39 H39            4.0426    -1.3337     0.8931 H       
  40 H40            5.0730    -3.1425     2.2998 H       
  41 H41            0.4822    -4.7088     0.9539 H       
  42 H42           -1.0105    -0.7978     0.1383 H       
  43 H43           -3.2651    -1.5164     0.8193 H       
  44 H44           -1.7733    -5.4287     1.6303 H       
  45 H45            4.4825    -5.0059     0.9381 H       
  46 H46            5.4422    -4.4665    -0.3085 H       
  47 H47           -4.5753    -4.3401     0.8125 H       
  48 H48           -3.9576    -4.7416     2.4329 H       
  49 H49           -4.5796    -3.1080     2.0972 H       
  50 H50            1.6188     1.6628     3.6111 H       
  51 H51            7.6675    -0.8442     1.3898 H       
@<TRIPOS>BOND
   1    1    2 ar
   2    1    6 ar
   3    1   29 1
   4    2    3 ar
   5    2   30 1
   6    3    4 ar
   7    3    7 1
   8    4    5 ar
   9    4   31 1
  10    5    6 ar
  11    5   25 1
  12    6   32 1
  13    7    8 1
  14    7   14 1
  15    7   17 1
  16    8    9 ar
  17    8   13 ar
  18    9   10 ar
  19    9   33 1
  20   10   11 ar
  21   10   34 1
  22   11   12 ar
  23   11   35 1
  24   12   13 ar
  25   12   36 1
  26   13   37 1
  27   14   15 1
  28   15   16 1
  29   15   38 1
  30   15   39 1
  31   16   26 1
  32   16   23 1
  33   16   40 1
  34   17   18 ar
  35   17   19 ar
  36   18   22 ar
  37   18   41 1
  38   19   20 ar
  39   19   42 1
  40   20   21 ar
  41   20   43 1
  42   21   22 ar
  43   21   24 1
  44   22   44 1
  45   23   45 1
  46   23   46 1
  47   24   47 1
  48   24   48 1
  49   24   49 1
  50   25   50 1
  51   26   27 2
  52   26   28 1
  53   28   51 1

#	End of record

