#	Name: ASD01910644
#	Creating user name:	WinNT
#	Creation time:	15. 06. 2019 19:56

#	Modifying user name:	WinNT
#	Modification time:	15. 06. 2019 19:56

#	Program:	/corina/corina34_cracker 3.40 0067  02.08.2006

@<TRIPOS>MOLECULE
ASD01910644
  51   54    0    0    0
SMALL
NO_CHARGES


@<TRIPOS>ATOM
   1 C1            -0.0167     1.3797     0.0096 C.ar    
   2 C2             0.0021    -0.0041     0.0020 C.ar    
   3 C3             1.2058    -0.6866    -0.0127 C.ar    
   4 C4             2.3967     0.0088    -0.0198 C.ar    
   5 C5             2.3858     1.4064    -0.0127 C.ar    
   6 C6             1.1661     2.0888     0.0021 C.ar    
   7 C7             3.6182     2.1357    -0.0195 C.1     
   8 C8             4.6285     2.7335    -0.0252 C.1     
   9 C9             5.8609     3.4628    -0.0321 C.ar    
  10 C10            5.8452     4.8624    -0.0249 C.ar    
  11 C11            7.0210     5.5549    -0.0307 C.ar    
  12 C12            8.2385     4.8661    -0.0297 C.ar    
  13 C13            8.2565     3.4703    -0.0444 C.ar    
  14 C14            7.0800     2.7753    -0.0401 C.ar    
  15 C15            7.0232     7.0610    -0.0587 C.3     
  16 C16            8.2203     7.5977     0.7219 C.3     
  17 N17            9.4581     6.9535     0.2890 N.am    
  18 C18            9.4970     5.6374     0.0082 C.2     
  19 O19           10.5594     5.0886    -0.2120 O.2     
  20 C20           10.6783     7.7537     0.1581 C.3     
  21 C21           11.4363     7.7489     1.4871 C.3     
  22 N22           12.6598     8.5512     1.3559 N.3     
  23 C23           13.2911     8.7675     2.6658 C.3     
  24 C24           14.5904     9.5547     2.4764 C.3     
  25 O25           14.3035    10.7839     1.8041 O.3     
  26 C26           13.6887    10.6104     0.5246 C.3     
  27 C27           12.3802     9.8340     0.6942 C.3     
  28 H28           -0.9600     1.9055     0.0169 H       
  29 H29           -0.9274    -0.5541     0.0079 H       
  30 H30            1.2127    -1.7666    -0.0182 H       
  31 H31            3.3354    -0.5251    -0.0306 H       
  32 H32            1.1499     3.1687     0.0074 H       
  33 H33            4.9046     5.3931    -0.0151 H       
  34 H34            9.1979     2.9412    -0.0549 H       
  35 H35            7.0908     1.6954    -0.0510 H       
  36 H36            7.0823     7.4034    -1.0918 H       
  37 H37            6.1023     7.4323     0.3911 H       
  38 H38            8.3004     8.6726     0.5602 H       
  39 H39            8.0697     7.4065     1.7844 H       
  40 H40           11.3098     7.3284    -0.6220 H       
  41 H41           10.4146     8.7778    -0.1060 H       
  42 H42           10.8048     8.1741     2.2671 H       
  43 H43           11.7000     6.7247     1.7512 H       
  44 H44           12.6140     9.3315     3.3074 H       
  45 H45           13.5126     7.8048     3.1265 H       
  46 H46           15.0326     9.7669     3.4499 H       
  47 H47           15.2880     8.9674     1.8793 H       
  48 H48           13.4788    11.5861     0.0863 H       
  49 H49           14.3601    10.0539    -0.1293 H       
  50 H50           11.9368     9.6497    -0.2844 H       
  51 H51           11.6886    10.4150     1.3043 H       
@<TRIPOS>BOND
   1    1    2 ar
   2    1    6 ar
   3    1   28 1
   4    2    3 ar
   5    2   29 1
   6    3    4 ar
   7    3   30 1
   8    4    5 ar
   9    4   31 1
  10    5    6 ar
  11    5    7 1
  12    6   32 1
  13    7    8 3
  14    8    9 1
  15    9   10 ar
  16    9   14 ar
  17   10   11 ar
  18   10   33 1
  19   11   12 ar
  20   11   15 1
  21   12   13 ar
  22   12   18 1
  23   13   14 ar
  24   13   34 1
  25   14   35 1
  26   15   16 1
  27   15   36 1
  28   15   37 1
  29   16   17 1
  30   16   38 1
  31   16   39 1
  32   17   18 am
  33   17   20 1
  34   18   19 2
  35   20   21 1
  36   20   40 1
  37   20   41 1
  38   21   22 1
  39   21   42 1
  40   21   43 1
  41   22   23 1
  42   22   27 1
  43   23   24 1
  44   23   44 1
  45   23   45 1
  46   24   25 1
  47   24   46 1
  48   24   47 1
  49   25   26 1
  50   26   27 1
  51   26   48 1
  52   26   49 1
  53   27   50 1
  54   27   51 1

#	End of record

