#	Name: ASD00311398
#	Creating user name:	WinNT
#	Creation time:	15. 06. 2019 18:34

#	Modifying user name:	WinNT
#	Modification time:	15. 06. 2019 18:34

#	Program:	/corina/corina34_cracker 3.40 0067  02.08.2006

@<TRIPOS>MOLECULE
ASD00311398
  33   36    0    0    0
SMALL
NO_CHARGES


@<TRIPOS>ATOM
   1 C1            -0.0167     1.3774     0.0096 C.2     
   2 C2             0.0021    -0.0041     0.0020 C.2     
   3 C3             1.2583    -0.6771    -0.0131 C.2     
   4 C4             2.4324     0.0670    -0.0199 C.2     
   5 C5             2.3579     1.4762    -0.0117 C.2     
   6 N6             1.1649     2.0905     0.0022 N.am    
   7 C7            -1.3435    -0.5755     0.0118 C.2     
   8 C8            -2.3234     0.3267     0.0260 C.2     
   9 S9            -1.6791     1.9564     0.0358 S.3     
  10 O10            3.3825     2.1388    -0.0175 O.2     
  11 C11            3.7447    -0.6106    -0.0351 C.2     
  12 C12            4.6412    -0.5493    -1.0407 C.2     
  13 C13            5.8005    -1.2685    -0.8237 C.2     
  14 C14            5.8563    -1.9122     0.3443 C.2     
  15 S15            4.3838    -1.6161     1.2587 S.3     
  16 C16           -1.5960    -2.0355     0.0059 C.ar    
  17 C17           -2.2070    -2.6447     1.1015 C.ar    
  18 C18           -2.4400    -4.0046     1.0900 C.ar    
  19 C19           -2.0684    -4.7637    -0.0053 C.ar    
  20 C20           -1.4616    -4.1651    -1.0950 C.ar    
  21 C21           -1.2289    -2.8050    -1.0977 C.ar    
  22 O22            1.3077    -2.0302    -0.0204 O.3     
  23 Cl23          -4.0155    -0.0609     0.0392 Cl      
  24 H24            1.1322     3.0600     0.0077 H       
  25 H25            4.4666     0.0166    -1.9439 H       
  26 H26            6.6024    -1.3074    -1.5460 H       
  27 H27            6.6837    -2.5203     0.6792 H       
  28 H28           -2.4969    -2.0532     1.9574 H       
  29 H29           -2.9131    -4.4776     1.9379 H       
  30 H30           -2.2525    -5.8278    -0.0096 H       
  31 H31           -1.1734    -4.7628    -1.9470 H       
  32 H32           -0.7595    -2.3380    -1.9509 H       
  33 H33            2.2048    -2.3909    -0.0307 H       
@<TRIPOS>BOND
   1    1    2 2
   2    1    6 1
   3    1    9 1
   4    2    3 1
   5    2    7 1
   6    3    4 2
   7    3   22 1
   8    4    5 1
   9    4   11 1
  10    5    6 am
  11    5   10 2
  12    6   24 1
  13    7    8 2
  14    7   16 1
  15    8    9 1
  16    8   23 1
  17   11   12 2
  18   11   15 1
  19   12   13 1
  20   12   25 1
  21   13   14 2
  22   13   26 1
  23   14   15 1
  24   14   27 1
  25   16   17 ar
  26   16   21 ar
  27   17   18 ar
  28   17   28 1
  29   18   19 ar
  30   18   29 1
  31   19   20 ar
  32   19   30 1
  33   20   21 ar
  34   20   31 1
  35   21   32 1
  36   22   33 1

#	End of record

