#	Name: ASD03731576
#	Creating user name:	WinNT
#	Creation time:	15. 06. 2019 20:46

#	Modifying user name:	WinNT
#	Modification time:	15. 06. 2019 20:46

#	Program:	/corina/corina34_cracker 3.40 0067  02.08.2006

@<TRIPOS>MOLECULE
ASD03731576
  40   42    0    0    0
SMALL
NO_CHARGES


@<TRIPOS>ATOM
   1 C1             0.7587     1.4154    -0.4018 C.2     
   2 C2             0.5743    -0.0456    -0.3014 C.ar    
   3 C3             1.5333    -0.9110    -0.8345 C.ar    
   4 C4             1.3577    -2.2733    -0.7390 C.ar    
   5 C5             0.2278    -2.7882    -0.1135 C.ar    
   6 C6            -0.7287    -1.9305     0.4177 C.ar    
   7 C7            -0.5570    -0.5670     0.3320 C.ar    
   8 O8             1.7460     1.8673    -0.9488 O.2     
   9 N9            -0.1700     2.2484     0.1081 N.am    
  10 S10            0.0369     3.8876    -0.0045 S.o2    
  11 O11           -1.1019     4.4303     0.6497 O.2     
  12 O12            1.3468     4.1109     0.4990 O.2     
  13 C13           -0.0279     4.2308    -1.7846 C.3     
  14 O14            0.0580    -4.1313    -0.0217 O.3     
  15 C15            0.5840    -4.7687     1.0575 C.ar    
  16 C16            1.1748    -4.0351     2.0765 C.ar    
  17 C17            1.7096    -4.6823     3.1726 C.ar    
  18 C18            1.6557    -6.0670     3.2554 C.ar    
  19 C19            1.0641    -6.8005     2.2361 C.ar    
  20 C20            0.5249    -6.1524     1.1427 C.ar    
  21 C21            2.8053    -6.1415     5.4354 C.2     
  22 N22            3.1787    -7.0775     6.2652 N.2     
  23 C23            2.8318    -8.2746     5.7698 C.2     
  24 C24            2.2192    -8.0784     4.5866 C.2     
  25 N25            2.1995    -6.7251     4.3693 N.pl3   
  26 H26            2.4109    -0.5117    -1.3211 H       
  27 H27            2.0984    -2.9427    -1.1507 H       
  28 H28           -1.6053    -2.3342     0.9025 H       
  29 H29           -1.2981     0.0986     0.7491 H       
  30 H30           -0.9596     1.8878     0.5410 H       
  31 H31           -0.9928     3.9143    -2.1807 H       
  32 H32            0.1012     5.2999    -1.9534 H       
  33 H33            0.7690     3.6845    -2.2891 H       
  34 H34            1.2167    -2.9579     2.0119 H       
  35 H35            2.1700    -4.1114     3.9653 H       
  36 H36            1.0223    -7.8778     2.3001 H       
  37 H37            0.0611    -6.7228     0.3515 H       
  38 H38            2.9498    -5.0805     5.5755 H       
  39 H39            3.0131    -9.2306     6.2383 H       
  40 H40            1.8204    -8.8410     3.9341 H       
@<TRIPOS>BOND
   1    1    2 1
   2    1    8 2
   3    1    9 am
   4    2    3 ar
   5    2    7 ar
   6    3    4 ar
   7    3   26 1
   8    4    5 ar
   9    4   27 1
  10    5    6 ar
  11    5   14 1
  12    6    7 ar
  13    6   28 1
  14    7   29 1
  15    9   10 am
  16    9   30 1
  17   10   11 2
  18   10   12 2
  19   10   13 1
  20   13   31 1
  21   13   32 1
  22   13   33 1
  23   14   15 1
  24   15   16 ar
  25   15   20 ar
  26   16   17 ar
  27   16   34 1
  28   17   18 ar
  29   17   35 1
  30   18   19 ar
  31   18   25 1
  32   19   20 ar
  33   19   36 1
  34   20   37 1
  35   21   22 2
  36   21   25 1
  37   21   38 1
  38   22   23 1
  39   23   24 2
  40   23   39 1
  41   24   25 1
  42   24   40 1

#	End of record

