#	Name: ASD01816011
#	Creating user name:	WinNT
#	Creation time:	15. 06. 2019 19:34

#	Modifying user name:	WinNT
#	Modification time:	15. 06. 2019 19:34

#	Program:	/corina/corina34_cracker 3.40 0067  02.08.2006

@<TRIPOS>MOLECULE
ASD01816011
  40   44    0    0    0
SMALL
NO_CHARGES


@<TRIPOS>ATOM
   1 C1            -0.0118     1.3805     0.1672 C.ar    
   2 C2             0.0069    -0.0048     0.1577 C.ar    
   3 C3             1.2018    -0.6913     0.0910 C.ar    
   4 C4             2.4029     0.0057     0.0320 C.ar    
   5 C5             2.3808     1.4101     0.0413 C.ar    
   6 C6             1.1698     2.0910     0.1094 C.ar    
   7 N7             3.6071    -0.6781    -0.0347 N.pl3   
   8 C8             4.7991    -0.0560    -0.0937 C.2     
   9 C9             4.8993     1.3123    -0.0915 C.2     
  10 C10            3.6670     2.1304    -0.0221 C.2     
  11 C11            5.9941     2.2771    -0.1443 C.2     
  12 N12            5.4205     3.4992    -0.1080 N.am    
  13 N13            4.0303     3.3807    -0.0351 N.2     
  14 C14            6.1196     4.7125    -0.1380 C.ar    
  15 O15            7.1871     2.0291    -0.2080 O.2     
  16 C16            3.5821    -2.0728    -0.0405 C.ar    
  17 C17            6.4954     5.2693    -1.3532 C.ar    
  18 C18            7.1844     6.4662    -1.3797 C.ar    
  19 C19            7.5011     7.1108    -0.1979 C.ar    
  20 C20            7.1292     6.5606     1.0149 C.ar    
  21 C21            6.4341     5.3654     1.0490 C.ar    
  22 F22            6.0702     4.8278     2.2338 F       
  23 N23            3.4649    -2.7219    -1.1885 N.ar    
  24 C24            3.6862    -2.7684     1.1583 C.ar    
  25 C25            3.6605    -4.1522     1.1383 C.ar    
  26 C26            3.5310    -4.7943    -0.0853 C.ar    
  27 C27            3.4376    -4.0394    -1.2386 C.ar    
  28 H28           -0.9541     1.9059     0.2156 H       
  29 H29           -0.9228    -0.5525     0.2034 H       
  30 H30            1.2039    -1.7713     0.0850 H       
  31 H31            1.1543     3.1709     0.1168 H       
  32 H32            5.7002    -0.6493    -0.1437 H       
  33 H33            6.2495     4.7668    -2.2769 H       
  34 H34            7.4766     6.8991    -2.3250 H       
  35 H35            8.0405     8.0461    -0.2223 H       
  36 H36            7.3781     7.0666     1.9360 H       
  37 H37            3.7862    -2.2363     2.0928 H       
  38 H38            3.7398    -4.7194     2.0539 H       
  39 H39            3.5080    -5.8729    -0.1357 H       
  40 H40            3.3363    -4.5345    -2.1930 H       
@<TRIPOS>BOND
   1    1    2 ar
   2    1    6 ar
   3    1   28 1
   4    2    3 ar
   5    2   29 1
   6    3    4 ar
   7    3   30 1
   8    4    5 ar
   9    4    7 1
  10    5    6 ar
  11    5   10 1
  12    6   31 1
  13    7    8 1
  14    7   16 1
  15    8    9 2
  16    8   32 1
  17    9   10 1
  18    9   11 1
  19   10   13 2
  20   11   12 am
  21   11   15 2
  22   12   13 1
  23   12   14 1
  24   14   17 ar
  25   14   21 ar
  26   16   23 ar
  27   16   24 ar
  28   17   18 ar
  29   17   33 1
  30   18   19 ar
  31   18   34 1
  32   19   20 ar
  33   19   35 1
  34   20   21 ar
  35   20   36 1
  36   21   22 1
  37   23   27 ar
  38   24   25 ar
  39   24   37 1
  40   25   26 ar
  41   25   38 1
  42   26   27 ar
  43   26   39 1
  44   27   40 1

#	End of record

