#	Name: ASD00069469
#	Creating user name:	WinNT
#	Creation time:	15. 06. 2019 18:29

#	Modifying user name:	WinNT
#	Modification time:	15. 06. 2019 18:29

#	Program:	/corina/corina34_cracker 3.40 0067  02.08.2006

@<TRIPOS>MOLECULE
ASD00069469
  22   22    0    0    0
SMALL
NO_CHARGES


@<TRIPOS>ATOM
   1 C1            -0.0168     1.3898     0.0097 C.ar    
   2 C2             0.0021    -0.0041     0.0020 C.ar    
   3 C3             1.1859     2.1010     0.0020 C.ar    
   4 C4             2.3900     1.4251    -0.0131 C.ar    
   5 C5             2.4133     0.0444    -0.0212 C.ar    
   6 C6             1.2192    -0.6773    -0.0132 C.ar    
   7 B7             1.2492    -2.2469    -0.0219 Du      
   8 O8             2.4923    -2.9332    -0.0380 O.3     
   9 O9             0.0334    -2.9804    -0.0138 O.3     
  10 C10           -1.3050     2.1130     0.0197 C.2     
  11 O11           -2.3496     1.4931     0.0213 O.2     
  12 O12           -1.3212     3.4600     0.0271 O.3     
  13 C13           -2.6227     4.1036     0.0368 C.3     
  14 H14           -0.9245    -0.5590     0.0082 H       
  15 H15            1.1738     3.1810     0.0076 H       
  16 H16            3.3173     1.9786    -0.0190 H       
  17 H17            3.3583    -0.4782    -0.0337 H       
  18 H18            2.4097    -3.8966    -0.0423 H       
  19 H19            0.1529    -3.9400    -0.0201 H       
  20 H20           -3.1804     3.8089    -0.8522 H       
  21 H21           -3.1720     3.7992     0.9278 H       
  22 H22           -2.4929     5.1858     0.0421 H       
@<TRIPOS>BOND
   1    1    2 ar
   2    1    3 ar
   3    1   10 1
   4    2    6 ar
   5    2   14 1
   6    3    4 ar
   7    3   15 1
   8    4    5 ar
   9    4   16 1
  10    5    6 ar
  11    5   17 1
  12    6    7 1
  13    7    8 1
  14    7    9 1
  15    8   18 1
  16    9   19 1
  17   10   11 2
  18   10   12 1
  19   12   13 1
  20   13   20 1
  21   13   21 1
  22   13   22 1

#	End of record

