#	Name: ASD00069074
#	Creating user name:	WinNT
#	Creation time:	15. 06. 2019 18:29

#	Modifying user name:	WinNT
#	Modification time:	15. 06. 2019 18:29

#	Program:	/corina/corina34_cracker 3.40 0067  02.08.2006

@<TRIPOS>MOLECULE
ASD00069074
  28   31    0    0    0
SMALL
NO_CHARGES


@<TRIPOS>ATOM
   1 C1            -0.0168     1.3854     0.0097 C.ar    
   2 C2             0.0021    -0.0041     0.0020 C.ar    
   3 C3             1.1879    -0.6829    -0.0125 C.ar    
   4 C4             2.3919     0.0239    -0.0202 C.ar    
   5 C5             2.3778     1.4303    -0.0129 C.ar    
   6 C6             1.1580     2.1024     0.0023 C.ar    
   7 C7             3.8050    -0.3739    -0.0354 C.2     
   8 N8             4.5246     0.7246    -0.0365 N.2     
   9 N9             3.6862     1.8437    -0.0231 N.pl3   
  10 C10            4.3226    -1.7563    -0.0464 C.2     
  11 N11            3.5825    -2.8393    -0.0446 N.2     
  12 C12            4.3794    -3.9354    -0.0569 C.ar    
  13 C13            5.7104    -3.4818    -0.0669 C.ar    
  14 N14            5.6479    -2.1015    -0.0660 N.pl3   
  15 C15            4.1219    -5.3103    -0.0613 C.ar    
  16 C16            5.1605    -6.1974    -0.0752 C.ar    
  17 C17            6.4739    -5.7495    -0.0847 C.ar    
  18 C18            6.7521    -4.3987    -0.0806 C.ar    
  19 Br19          -1.6273    -0.9637     0.0124 Br      
  20 H20           -0.9621     1.9075     0.0169 H       
  21 H21            1.1938    -1.7628    -0.0176 H       
  22 H22            1.1340     3.1821     0.0080 H       
  23 H23            3.9829     2.7672    -0.0215 H       
  24 H24            6.4017    -1.4911    -0.0715 H       
  25 H25            3.1035    -5.6699    -0.0533 H       
  26 H26            4.9575    -7.2581    -0.0785 H       
  27 H27            7.2840    -6.4638    -0.0953 H       
  28 H28            7.7762    -4.0559    -0.0881 H       
@<TRIPOS>BOND
   1    1    2 ar
   2    1    6 ar
   3    1   20 1
   4    2    3 ar
   5    2   19 1
   6    3    4 ar
   7    3   21 1
   8    4    5 ar
   9    4    7 1
  10    5    6 ar
  11    5    9 1
  12    6   22 1
  13    7    8 2
  14    7   10 1
  15    8    9 1
  16    9   23 1
  17   10   11 2
  18   10   14 1
  19   11   12 1
  20   12   13 ar
  21   12   15 ar
  22   13   14 1
  23   13   18 ar
  24   14   24 1
  25   15   16 ar
  26   15   25 1
  27   16   17 ar
  28   16   26 1
  29   17   18 ar
  30   17   27 1
  31   18   28 1

#	End of record

