#	Name: ASD05313091
#	Creating user name:	WinNT
#	Creation time:	15. 06. 2019 20:58

#	Modifying user name:	WinNT
#	Modification time:	15. 06. 2019 20:58

#	Program:	/corina/corina34_cracker 3.40 0067  02.08.2006

@<TRIPOS>MOLECULE
ASD05313091
  39   42    0    0    0
SMALL
NO_CHARGES


@<TRIPOS>ATOM
   1 C1             0.2480     0.5015    -1.5518 C.1     
   2 C2             0.1047     1.6782    -0.7484 C.ar    
   3 C3             1.1904     2.1536     0.0121 C.ar    
   4 C4             1.0364     3.2992     0.7889 C.ar    
   5 C5            -0.1759     3.9617     0.8100 C.ar    
   6 C6            -1.2431     3.4945     0.0630 C.ar    
   7 C7            -1.1081     2.3633    -0.7186 C.ar    
   8 N8             0.3617    -0.4319    -2.1892 N.1     
   9 C9             2.4851     1.4409    -0.0135 C.2     
  10 O10            2.5129     0.2281     0.0637 O.2     
  11 C11            4.6652     3.8956    -1.3864 C.2     
  12 C12            3.6217     3.5951    -0.3370 C.3     
  13 N13            5.5752     2.9900    -1.8238 N.pl3   
  14 N14            3.6348     2.1357    -0.1225 N.am    
  15 C15            4.9382     1.4605    -0.0304 C.3     
  16 C16            5.6774     1.6054    -1.3660 C.3     
  17 N17            5.8667     4.8652    -2.8354 N.2     
  18 N18            4.8771     5.0088    -2.0222 N.2     
  19 C19            6.3352     3.6367    -2.7502 C.2     
  20 C20            7.4698     3.0703    -3.5119 C.ar    
  21 C21            8.1524     3.8667    -4.4314 C.ar    
  22 C22            9.2119     3.3225    -5.1357 C.ar    
  23 C23            9.5554     1.9988    -4.8983 C.ar    
  24 C24            8.8354     1.2663    -3.9721 C.ar    
  25 N25            7.8340     1.8093    -3.3109 N.ar    
  26 H26            1.8644     3.6695     1.3751 H       
  27 H27           -0.2915     4.8498     1.4136 H       
  28 H28           -2.1862     4.0203     0.0875 H       
  29 H29           -1.9439     2.0075    -1.3027 H       
  30 H30            3.8689     4.1098     0.5915 H       
  31 H31            2.6393     3.9107    -0.6882 H       
  32 H32            5.5292     1.9166     0.7639 H       
  33 H33            4.7861     0.4037     0.1888 H       
  34 H34            5.2265     0.9431    -2.1051 H       
  35 H35            6.7267     1.3425    -1.2322 H       
  36 H36            7.8579     4.8934    -4.5916 H       
  37 H37            9.7591     3.9144    -5.8544 H       
  38 H38           10.3771     1.5449    -5.4322 H       
  39 H39            9.1004     0.2361    -3.7858 H       
@<TRIPOS>BOND
   1    1    2 1
   2    1    8 3
   3    2    3 ar
   4    2    7 ar
   5    3    4 ar
   6    3    9 1
   7    4    5 ar
   8    4   26 1
   9    5    6 ar
  10    5   27 1
  11    6    7 ar
  12    6   28 1
  13    7   29 1
  14    9   10 2
  15    9   14 am
  16   11   12 1
  17   11   13 1
  18   11   18 2
  19   12   14 1
  20   12   30 1
  21   12   31 1
  22   13   16 1
  23   13   19 1
  24   14   15 1
  25   15   16 1
  26   15   32 1
  27   15   33 1
  28   16   34 1
  29   16   35 1
  30   17   18 1
  31   17   19 2
  32   19   20 1
  33   20   21 ar
  34   20   25 ar
  35   21   22 ar
  36   21   36 1
  37   22   23 ar
  38   22   37 1
  39   23   24 ar
  40   23   38 1
  41   24   25 ar
  42   24   39 1

#	End of record

