#	Name: ASD03730246
#	Creating user name:	WinNT
#	Creation time:	15. 06. 2019 20:44

#	Modifying user name:	WinNT
#	Modification time:	15. 06. 2019 20:44

#	Program:	/corina/corina34_cracker 3.40 0067  02.08.2006

@<TRIPOS>MOLECULE
ASD03730246
  60   65    0    0    0
SMALL
NO_CHARGES


@<TRIPOS>ATOM
   1 O1            -0.2598     1.2388     0.5915 O.3     
   2 C2            -0.2116    -0.1996     0.6355 C.3     
   3 O3             0.9655    -0.5256    -0.1267 O.3     
   4 C4             1.7893     0.5570    -0.0083 C.ar    
   5 C5             1.0350     1.6421     0.4322 C.ar    
   6 C6             3.1442     0.7064    -0.2434 C.ar    
   7 C7             3.7630     1.9366    -0.0434 C.ar    
   8 C8             2.9976     3.0155     0.3887 C.ar    
   9 C9             1.6476     2.8681     0.6292 C.ar    
  10 O10            5.0717     2.2888    -0.1954 O.3     
  11 C11            3.9304     4.1931     0.4828 C.3     
  12 C12            5.1696     3.7229    -0.2913 C.3     
  13 N13            3.3369     6.3670     0.8619 N.am    
  14 C14            3.3373     5.4370    -0.1139 C.2     
  15 C15            4.2591     4.5509     1.9015 C.ar    
  16 C16            4.8217     3.8530     2.9612 C.ar    
  17 C17            5.0015     4.4859     4.1906 C.ar    
  18 C18            4.6177     5.8033     4.3448 C.ar    
  19 C19            4.0577     6.4965     3.2911 C.ar    
  20 C20            3.8728     5.8775     2.0560 C.ar    
  21 O21            2.9379     5.5775    -1.2505 O.2     
  22 C22            5.2312     2.4374     2.7861 C.ar    
  23 C23            4.4467     1.4124     3.3115 C.ar    
  24 C24            4.8322     0.0978     3.1457 C.ar    
  25 C25            5.9953    -0.2035     2.4600 C.ar    
  26 C26            6.7778     0.8098     1.9369 C.ar    
  27 C27            6.3982     2.1280     2.0911 C.ar    
  28 C28            3.1799     1.7390     4.0596 C.3     
  29 F29            2.5054     0.5544     4.3741 F       
  30 F30            3.4975     2.4220     5.2385 F       
  31 F31            2.3608     2.5439     3.2606 F       
  32 C32            2.8333     7.7320     0.6904 C.3     
  33 C33            1.3451     7.7746     1.0432 C.3     
  34 C34            0.8192     9.2001     0.8641 C.3     
  35 C35           -0.6690     9.2427     1.2169 C.3     
  36 C36           -1.1949    10.6683     1.0378 C.3     
  37 H37           -0.1110    -0.5481     1.6634 H       
  38 H38           -1.0998    -0.6270     0.1703 H       
  39 H39            3.7257    -0.1375    -0.5840 H       
  40 H40            1.0664     3.7117     0.9713 H       
  41 H41            6.0823     4.0813     0.1846 H       
  42 H42            5.1217     4.0454    -1.3314 H       
  43 H43            5.4387     3.9479     5.0188 H       
  44 H44            4.7564     6.2945     5.2966 H       
  45 H45            3.7609     7.5263     3.4243 H       
  46 H46            4.2249    -0.6974     3.5525 H       
  47 H47            6.2935    -1.2337     2.3329 H       
  48 H48            7.6853     0.5691     1.4030 H       
  49 H49            7.0075     2.9183     1.6780 H       
  50 H50            3.3819     8.4068     1.3475 H       
  51 H51            2.9702     8.0423    -0.3454 H       
  52 H52            0.7965     7.0997     0.3862 H       
  53 H53            1.2083     7.4642     2.0791 H       
  54 H54            1.3678     9.8750     1.5211 H       
  55 H55            0.9561     9.5105    -0.1717 H       
  56 H56           -1.2176     8.5679     0.5599 H       
  57 H57           -0.8059     8.9324     2.2528 H       
  58 H58           -0.6463    11.3432     1.6948 H       
  59 H59           -1.0580    10.9786     0.0019 H       
  60 H60           -2.2551    10.6987     1.2891 H       
@<TRIPOS>BOND
   1    1    2 1
   2    1    5 1
   3    2    3 1
   4    2   37 1
   5    2   38 1
   6    3    4 1
   7    4    5 ar
   8    4    6 ar
   9    5    9 ar
  10    6    7 ar
  11    6   39 1
  12    7    8 ar
  13    7   10 1
  14    8    9 ar
  15    8   11 1
  16    9   40 1
  17   10   12 1
  18   11   12 1
  19   11   14 1
  20   11   15 1
  21   12   41 1
  22   12   42 1
  23   13   14 am
  24   13   20 1
  25   13   32 1
  26   14   21 2
  27   15   16 ar
  28   15   20 ar
  29   16   17 ar
  30   16   22 1
  31   17   18 ar
  32   17   43 1
  33   18   19 ar
  34   18   44 1
  35   19   20 ar
  36   19   45 1
  37   22   23 ar
  38   22   27 ar
  39   23   24 ar
  40   23   28 1
  41   24   25 ar
  42   24   46 1
  43   25   26 ar
  44   25   47 1
  45   26   27 ar
  46   26   48 1
  47   27   49 1
  48   28   29 1
  49   28   30 1
  50   28   31 1
  51   32   33 1
  52   32   50 1
  53   32   51 1
  54   33   34 1
  55   33   52 1
  56   33   53 1
  57   34   35 1
  58   34   54 1
  59   34   55 1
  60   35   36 1
  61   35   56 1
  62   35   57 1
  63   36   58 1
  64   36   59 1
  65   36   60 1

#	End of record

