#	Name: ASD01940117
#	Creating user name:	WinNT
#	Creation time:	15. 06. 2019 20:11

#	Modifying user name:	WinNT
#	Modification time:	15. 06. 2019 20:11

#	Program:	/corina/corina34_cracker 3.40 0067  02.08.2006

@<TRIPOS>MOLECULE
ASD01940117
  15   15    0    0    0
SMALL
NO_CHARGES


@<TRIPOS>ATOM
   1 C1            -0.0187     1.5258     0.0104 C.3     
   2 C2             0.0021    -0.0041     0.0020 C.3     
   3 C3             1.3165     0.7789    -0.0063 C.3     
   4 S4            -0.5282     2.3649    -1.5150 S.o2    
   5 O5            -0.4940     3.7751    -1.3436 O.2     
   6 O6             0.0717     1.7497    -2.6467 O.2     
   7 Cl7           -2.4931     1.9325    -1.6959 Cl      
   8 C8            -0.4237     2.2196     1.3125 C.3     
   9 H9            -0.2728    -0.5162     0.9241 H       
  10 H10           -0.2904    -0.5063    -0.9201 H       
  11 H11            1.8888     0.7918    -0.9339 H       
  12 H12            1.9064     0.7818     0.9103 H       
  13 H13            0.2684     1.9366     2.1056 H       
  14 H14           -0.3940     3.3002     1.1728 H       
  15 H15           -1.4341     1.9164     1.5867 H       
@<TRIPOS>BOND
   1    1    2 1
   2    1    3 1
   3    1    4 1
   4    1    8 1
   5    2    3 1
   6    2    9 1
   7    2   10 1
   8    3   11 1
   9    3   12 1
  10    4    5 2
  11    4    6 2
  12    4    7 1
  13    8   13 1
  14    8   14 1
  15    8   15 1

#	End of record

