#	Name: ASD01810144
#	Creating user name:	WinNT
#	Creation time:	15. 06. 2019 19:23

#	Modifying user name:	WinNT
#	Modification time:	15. 06. 2019 19:23

#	Program:	/corina/corina34_cracker 3.40 0067  02.08.2006

@<TRIPOS>MOLECULE
ASD01810144
  34   36    0    0    0
SMALL
NO_CHARGES


@<TRIPOS>ATOM
   1 C1             0.2418     1.5794     0.5619 C.ar    
   2 C2             0.1804     0.1946     0.5563 C.ar    
   3 C3             1.3161    -0.5609     0.3564 C.ar    
   4 C4             2.5431     0.0649     0.1571 C.ar    
   5 C5             2.6058     1.4692     0.1622 C.ar    
   6 C6             1.4475     2.2233     0.3659 C.ar    
   7 N7             3.6849    -0.6809    -0.0427 N.pl3   
   8 C8             4.8885    -0.1268    -0.2380 C.2     
   9 C9             5.0748     1.2406    -0.2536 C.2     
  10 C10            3.9111     2.1192    -0.0501 C.2     
  11 O11            4.0229     3.3327    -0.0554 O.2     
  12 C12            6.4121     1.8100    -0.4707 C.2     
  13 O13            6.5812     3.1474    -0.4838 O.3     
  14 O14            7.3658     1.0751    -0.6384 O.2     
  15 C15            3.5775    -2.1419    -0.0409 C.3     
  16 C16            3.7055    -2.6533     1.3710 C.ar    
  17 C17            2.5814    -3.0649     2.0613 C.ar    
  18 C18            2.6980    -3.5341     3.3565 C.ar    
  19 C19            3.9399    -3.5921     3.9628 C.ar    
  20 C20            5.0660    -3.1805     3.2734 C.ar    
  21 C21            4.9503    -2.7160     1.9746 C.ar    
  22 F22            6.0496    -2.3142     1.3000 F       
  23 Br23           4.0978    -4.2335     5.7347 Br      
  24 F24            1.5067     3.5730     0.3710 F       
  25 H25           -0.6577     2.1571     0.7157 H       
  26 H26           -0.7681    -0.2982     0.7106 H       
  27 H27            1.2536    -1.6391     0.3549 H       
  28 H28            5.7419    -0.7715    -0.3879 H       
  29 H29            7.4792     3.4749    -0.6301 H       
  30 H30            2.6097    -2.4356    -0.4473 H       
  31 H31            4.3729    -2.5655    -0.6542 H       
  32 H32            1.6113    -3.0197     1.5889 H       
  33 H33            1.8189    -3.8553     3.8953 H       
  34 H34            6.0357    -3.2250     3.7469 H       
@<TRIPOS>BOND
   1    1    2 ar
   2    1    6 ar
   3    1   25 1
   4    2    3 ar
   5    2   26 1
   6    3    4 ar
   7    3   27 1
   8    4    5 ar
   9    4    7 1
  10    5    6 ar
  11    5   10 1
  12    6   24 1
  13    7    8 1
  14    7   15 1
  15    8    9 2
  16    8   28 1
  17    9   10 1
  18    9   12 1
  19   10   11 2
  20   12   13 1
  21   12   14 2
  22   13   29 1
  23   15   16 1
  24   15   30 1
  25   15   31 1
  26   16   17 ar
  27   16   21 ar
  28   17   18 ar
  29   17   32 1
  30   18   19 ar
  31   18   33 1
  32   19   20 ar
  33   19   23 1
  34   20   21 ar
  35   20   34 1
  36   21   22 1

#	End of record

