#	Name: ASD03731320
#	Creating user name:	WinNT
#	Creation time:	15. 06. 2019 20:45

#	Modifying user name:	WinNT
#	Modification time:	15. 06. 2019 20:45

#	Program:	/corina/corina34_cracker 3.40 0067  02.08.2006

@<TRIPOS>MOLECULE
ASD03731320
  62   68    0    0    0
SMALL
NO_CHARGES


@<TRIPOS>ATOM
   1 C1            -0.0191     1.4721     0.0328 C.2     
   2 C2            -0.0013    -0.0060     0.0370 C.ar    
   3 C3             1.2141    -0.6924     0.0452 C.ar    
   4 C4             1.2235    -2.0719     0.0491 C.ar    
   5 C5             0.0319    -2.7750     0.0444 C.ar    
   6 C6            -1.1763    -2.1007     0.0359 C.ar    
   7 C7            -1.2000    -0.7214     0.0387 C.ar    
   8 O8             1.0264     2.0925     0.0364 O.2     
   9 N9            -1.1942     2.1319     0.0193 N.am    
  10 C10            0.0499    -4.2819     0.0482 C.3     
  11 O11           -2.1565    -1.4825     6.2921 O.3     
  12 C12           -2.4054    -1.5560     7.7083 C.3     
  13 O13           -2.9085    -2.8915     7.8985 O.3     
  14 C14           -2.3689    -3.6333     6.8869 C.ar    
  15 C15           -1.9076    -2.7663     5.8989 C.ar    
  16 C16           -2.2308    -5.0004     6.7269 C.ar    
  17 C17           -1.6341    -5.5196     5.5819 C.ar    
  18 C18           -1.1847    -4.6439     4.5982 C.ar    
  19 C19           -1.3154    -3.2801     4.7575 C.ar    
  20 O20           -1.3880    -6.8165     5.2387 O.3     
  21 C21           -0.6234    -5.4947     3.4906 C.3     
  22 C22           -1.1553    -6.8963     3.8192 C.3     
  23 N23            0.0484    -4.7668     1.4306 N.am    
  24 C24           -1.0706    -5.0298     2.1346 C.2     
  25 C25            0.8756    -5.4607     3.4483 C.ar    
  26 C26            1.8603    -5.7665     4.3610 C.ar    
  27 C27            3.1928    -5.6299     4.0146 C.ar    
  28 C28            3.5331    -5.1850     2.7501 C.ar    
  29 C29            2.5505    -4.8764     1.8327 C.ar    
  30 C30            1.2066    -5.0113     2.1725 C.ar    
  31 O31           -2.2145    -4.9140     1.7484 O.2     
  32 C32           -1.2149     3.5267     0.1326 C.ar    
  33 C33           -2.1866     4.2640    -0.5316 C.ar    
  34 C34           -2.2052     5.6401    -0.4185 C.ar    
  35 C35           -1.2559     6.2851     0.3566 C.ar    
  36 C36           -0.2861     5.5520     1.0193 C.ar    
  37 C37           -0.2676     4.1749     0.9138 C.ar    
  38 C38           -3.2196     3.5627    -1.3756 C.3     
  39 F39           -4.0825     4.5091    -1.9385 F       
  40 F40           -2.5817     2.8485    -2.3955 F       
  41 F41           -3.9534     2.6796    -0.5764 F       
  42 F42           -1.2759     7.6315     0.4660 F       
  43 H43            2.1449    -0.1448     0.0481 H       
  44 H44            2.1632    -2.6043     0.0554 H       
  45 H45           -2.1029    -2.6555     0.0316 H       
  46 H46           -2.1437    -0.1963     0.0372 H       
  47 H47           -2.0256     1.6400    -0.0689 H       
  48 H48           -0.8329    -4.6571    -0.4694 H       
  49 H49            0.9469    -4.6358    -0.4600 H       
  50 H50           -1.4810    -1.4118     8.2676 H       
  51 H51           -3.1523    -0.8195     8.0046 H       
  52 H52           -2.5885    -5.6692     7.4958 H       
  53 H53           -0.9552    -2.6112     3.9899 H       
  54 H54           -0.4085    -7.6569     3.5915 H       
  55 H55           -2.0849    -7.0926     3.2850 H       
  56 H56            1.5922    -6.1136     5.3479 H       
  57 H57            3.9654    -5.8706     4.7299 H       
  58 H58            4.5733    -5.0782     2.4798 H       
  59 H59            2.8241    -4.5290     0.8474 H       
  60 H60           -2.9604     6.2138    -0.9351 H       
  61 H61            0.4535     6.0570     1.6229 H       
  62 H62            0.4860     3.6030     1.4350 H       
@<TRIPOS>BOND
   1    1    2 1
   2    1    8 2
   3    1    9 am
   4    2    3 ar
   5    2    7 ar
   6    3    4 ar
   7    3   43 1
   8    4    5 ar
   9    4   44 1
  10    5    6 ar
  11    5   10 1
  12    6    7 ar
  13    6   45 1
  14    7   46 1
  15    9   32 1
  16    9   47 1
  17   10   23 1
  18   10   48 1
  19   10   49 1
  20   11   12 1
  21   11   15 1
  22   12   13 1
  23   12   50 1
  24   12   51 1
  25   13   14 1
  26   14   15 ar
  27   14   16 ar
  28   15   19 ar
  29   16   17 ar
  30   16   52 1
  31   17   18 ar
  32   17   20 1
  33   18   19 ar
  34   18   21 1
  35   19   53 1
  36   20   22 1
  37   21   22 1
  38   21   24 1
  39   21   25 1
  40   22   54 1
  41   22   55 1
  42   23   24 am
  43   23   30 1
  44   24   31 2
  45   25   26 ar
  46   25   30 ar
  47   26   27 ar
  48   26   56 1
  49   27   28 ar
  50   27   57 1
  51   28   29 ar
  52   28   58 1
  53   29   30 ar
  54   29   59 1
  55   32   33 ar
  56   32   37 ar
  57   33   34 ar
  58   33   38 1
  59   34   35 ar
  60   34   60 1
  61   35   36 ar
  62   35   42 1
  63   36   37 ar
  64   36   61 1
  65   37   62 1
  66   38   39 1
  67   38   40 1
  68   38   41 1

#	End of record

