#	Name: ASD01885696
#	Creating user name:	WinNT
#	Creation time:	15. 06. 2019 19:50

#	Modifying user name:	WinNT
#	Modification time:	15. 06. 2019 19:50

#	Program:	/corina/corina34_cracker 3.40 0067  02.08.2006

@<TRIPOS>MOLECULE
ASD01885696
  44   47    0    0    0
SMALL
NO_CHARGES


@<TRIPOS>ATOM
   1 C1             0.0102     1.3562    -0.1985 C.ar    
   2 C2             1.2144     2.0713     0.0224 C.ar    
   3 C3             2.4454     1.3680     0.0099 C.ar    
   4 C4             2.4094    -0.0005    -0.2204 C.ar    
   5 C5             1.1781    -0.6320    -0.4297 C.ar    
   6 N6             0.0432     0.0410    -0.4146 N.ar    
   7 C7            -1.2177     3.3992     0.0312 C.ar    
   8 C8            -0.0318     4.0971     0.2522 C.ar    
   9 C9             1.1691     3.4534     0.2476 C.ar    
  10 C10            3.7289     2.0710     0.2350 C.ar    
  11 C11            1.1483    -2.0940    -0.6761 C.2     
  12 C12           -2.5282     4.1434     0.0378 C.3     
  13 C13           -1.2112     2.0573    -0.1912 C.ar    
  14 N14           -0.0281    -2.7189    -0.8810 N.am    
  15 O15            2.1844    -2.7284    -0.6932 O.2     
  16 N16           -3.0075     4.2761     1.4158 N.pl3   
  17 C17           -3.7263     3.3644     2.1055 C.2     
  18 N18           -3.9664     3.8363     3.2982 N.2     
  19 C19           -3.4152     5.0538     3.4115 C.2     
  20 C20           -2.8054     5.3450     2.2466 C.2     
  21 C21            4.6401     1.5816     1.1714 C.ar    
  22 C22            5.8345     2.2398     1.3771 C.ar    
  23 C23            6.1301     3.3857     0.6557 C.ar    
  24 C24            5.2283     3.8758    -0.2756 C.ar    
  25 C25            4.0337     3.2216    -0.4927 C.ar    
  26 F26            7.3011     4.0274     0.8614 F       
  27 C27           -4.1771     2.0243     1.5840 C.3     
  28 H28            3.3247    -0.5735    -0.2383 H       
  29 H29           -0.0647     5.1626     0.4256 H       
  30 H30            2.0815     4.0058     0.4171 H       
  31 H31           -2.3857     5.1339    -0.3944 H       
  32 H32           -3.2619     3.5923    -0.5506 H       
  33 H33           -2.1390     1.5315    -0.3619 H       
  34 H34           -0.8552    -2.2124    -0.8674 H       
  35 H35           -0.0476    -3.6753    -1.0422 H       
  36 H36           -3.4506     5.6878     4.2851 H       
  37 H37           -2.2666     6.2508     2.0108 H       
  38 H38            4.4103     0.6892     1.7345 H       
  39 H39            6.5404     1.8618     2.1017 H       
  40 H40            5.4630     4.7693    -0.8350 H       
  41 H41            3.3318     3.6041    -1.2189 H       
  42 H42           -3.3790     1.2945     1.7195 H       
  43 H43           -5.0624     1.7005     2.1313 H       
  44 H44           -4.4161     2.1087     0.5238 H       
@<TRIPOS>BOND
   1    1    6 ar
   2    1    2 ar
   3    1   13 ar
   4    2    3 ar
   5    2    9 ar
   6    3   10 1
   7    3    4 ar
   8    4    5 ar
   9    4   28 1
  10    5   11 1
  11    5    6 ar
  12    7   12 1
  13    7   13 ar
  14    7    8 ar
  15    8    9 ar
  16    8   29 1
  17    9   30 1
  18   10   21 ar
  19   10   25 ar
  20   11   14 am
  21   11   15 2
  22   12   16 1
  23   12   31 1
  24   12   32 1
  25   13   33 1
  26   14   34 1
  27   14   35 1
  28   16   17 1
  29   16   20 1
  30   17   18 2
  31   17   27 1
  32   18   19 1
  33   19   20 2
  34   19   36 1
  35   20   37 1
  36   21   22 ar
  37   21   38 1
  38   22   23 ar
  39   22   39 1
  40   23   24 ar
  41   23   26 1
  42   24   25 ar
  43   24   40 1
  44   25   41 1
  45   27   42 1
  46   27   43 1
  47   27   44 1

#	End of record

