#	Name: ASD07300691
#	Creating user name:	WinNT
#	Creation time:	15. 06. 2019 21:10

#	Modifying user name:	WinNT
#	Modification time:	15. 06. 2019 21:10

#	Program:	/corina/corina34_cracker 3.40 0067  02.08.2006

@<TRIPOS>MOLECULE
ASD07300691
  39   42    0    0    0
SMALL
NO_CHARGES


@<TRIPOS>ATOM
   1 C1            -0.0173     1.4133    -0.0101 C.2     
   2 C2             0.0021    -0.0041     0.0020 C.2     
   3 N3             1.1762     2.0865    -0.0173 N.pl3   
   4 N4             1.1569    -0.6390     0.0061 N.2     
   5 C5             2.3148     0.0278    -0.0010 C.2     
   6 C6             2.3463     1.3763    -0.0126 C.2     
   7 N7            -0.9999     2.3007    -0.0113 N.2     
   8 C8            -0.4912     3.5279    -0.0248 C.2     
   9 C9             0.8846     3.4244    -0.0280 C.2     
  10 N10           -1.1861    -0.7177     0.0100 N.pl3   
  11 C11           -1.1896    -2.1845    -0.1073 C.3     
  12 C12           -2.0522    -2.7579     1.0227 C.3     
  13 O13           -3.3301    -2.1171     1.0109 O.3     
  14 C14           -3.2811    -0.7092     1.2547 C.3     
  15 C15           -2.4811    -0.0314     0.1422 C.3     
  16 C16           -1.2807     4.8115    -0.0312 C.3     
  17 C17            2.6137     6.6514    -0.8718 C.ar    
  18 C18            1.6836     5.6320    -0.8961 C.ar    
  19 C19            1.8532     4.5385    -0.0378 C.ar    
  20 C20            2.9679     4.5314     0.8120 C.ar    
  21 C21            3.8465     5.5918     0.7705 C.ar    
  22 N22            3.6502     6.6040    -0.0544 N.ar    
  23 Cl23           2.4225     8.0108    -1.9344 Cl      
  24 H24            3.2434    -0.5235     0.0031 H       
  25 H25            3.2936     1.8949    -0.0178 H       
  26 H26           -1.6073    -2.4747    -1.0714 H       
  27 H27           -0.1709    -2.5622    -0.0194 H       
  28 H28           -2.1812    -3.8300     0.8742 H       
  29 H29           -1.5638    -2.5785     1.9805 H       
  30 H30           -4.2942    -0.3074     1.2730 H       
  31 H31           -2.7971    -0.5224     2.2133 H       
  32 H32           -2.3172     1.0161     0.3953 H       
  33 H33           -3.0310    -0.1011    -0.7963 H       
  34 H34           -1.4647     5.1301     0.9948 H       
  35 H35           -0.7161     5.5827    -0.5553 H       
  36 H36           -2.2322     4.6503    -0.5378 H       
  37 H37            0.8381     5.6770    -1.5666 H       
  38 H38            3.1353     3.7072     1.4895 H       
  39 H39            4.7081     5.5950     1.4216 H       
@<TRIPOS>BOND
   1    1    2 1
   2    1    3 1
   3    1    7 2
   4    2    4 2
   5    2   10 1
   6    3    6 1
   7    3    9 1
   8    4    5 1
   9    5    6 2
  10    5   24 1
  11    6   25 1
  12    7    8 1
  13    8    9 2
  14    8   16 1
  15    9   19 1
  16   10   11 1
  17   10   15 1
  18   11   12 1
  19   11   26 1
  20   11   27 1
  21   12   13 1
  22   12   28 1
  23   12   29 1
  24   13   14 1
  25   14   15 1
  26   14   30 1
  27   14   31 1
  28   15   32 1
  29   15   33 1
  30   16   34 1
  31   16   35 1
  32   16   36 1
  33   17   18 ar
  34   17   22 ar
  35   17   23 1
  36   18   19 ar
  37   18   37 1
  38   19   20 ar
  39   20   21 ar
  40   20   38 1
  41   21   22 ar
  42   21   39 1

#	End of record

