#	Name: ASD01410852
#	Creating user name:	WinNT
#	Creation time:	15. 06. 2019 19:18

#	Modifying user name:	WinNT
#	Modification time:	15. 06. 2019 19:18

#	Program:	/corina/corina34_cracker 3.40 0067  02.08.2006

@<TRIPOS>MOLECULE
ASD01410852
 105  111    0    0    0
SMALL
NO_CHARGES


@<TRIPOS>ATOM
   1 C1             0.7527     1.8857     1.9397 C.3     
   2 C2             0.1359     0.5802     2.4915 C.3     
   3 N3             0.0062     0.8295     3.9446 N.am    
   4 C4            -0.1613     2.2697     4.1549 C.3     
   5 C5            -0.0024     2.9539     2.7786 C.3     
   6 O6             2.1588     1.9357     2.1896 O.3     
   7 C7            -1.5332     2.5505     4.7118 C.2     
   8 O8            -2.3035     1.6363     4.9161 O.2     
   9 N9            -1.9040     3.8176     4.9829 N.am    
  10 C10            1.1242    -0.5795     2.3326 C.3     
  11 N11            0.6004    -1.7393     3.0608 N.3     
  12 C12            0.4794    -1.5391     4.4987 C.3     
  13 C13            0.0935    -0.1383     4.8715 C.2     
  14 O14           -0.1441     0.1251     6.0313 O.2     
  15 C15           -0.5794    -2.5011     5.0412 C.3     
  16 C16           -0.2151    -3.9344     4.6489 C.3     
  17 C17           -0.6372    -2.3888     6.5660 C.3     
  18 C18           -3.2695     4.1011     5.4317 C.3     
  19 C19           -4.3550     3.8295     4.4222 C.2     
  20 N20           -4.0308     3.4767     3.1625 N.am    
  21 O21           -5.5203     3.9283     4.7435 O.2     
  22 S22           -5.2176     3.2962     2.0218 S.o2    
  23 C23           -5.9113     4.9605     1.8230 C.3     
  24 C24           -3.5956     3.8486     6.9050 C.3     
  25 C25           -3.4694     5.2822     6.3835 C.3     
  26 C26           -7.1274     5.1142     0.9074 C.3     
  27 C27           -7.2928     5.2265     2.4243 C.3     
  28 O28           -4.5190     2.9036     0.8483 O.2     
  29 O29           -6.1641     2.4314     2.6347 O.2     
  30 C30           -4.9779     3.3478     7.2358 C.2     
  31 C31           -5.1299     2.1961     7.8413 C.2     
  32 C32            2.8969     2.7498     1.3949 C.ar    
  33 C33            4.3025     2.8226     1.5361 C.ar    
  34 C34            2.3015     3.5193     0.4301 C.ar    
  35 C35            3.0867     4.3521    -0.3787 C.ar    
  36 N36            4.3997     4.4165    -0.2356 N.ar    
  37 C37            5.0362     3.6857     0.6852 C.ar    
  38 C38            2.4322     5.1770    -1.4157 C.2     
  39 S39            0.7017     5.2245    -1.7427 S.3     
  40 C40            6.4326     3.7634     0.8280 C.ar    
  41 C41            7.0618     2.9993     1.7854 C.ar    
  42 C42            6.3277     2.1479     2.6160 C.ar    
  43 C43            4.9744     2.0577     2.5005 C.ar    
  44 Cl44           7.3581     4.8157    -0.1967 Cl      
  45 O45            8.4114     3.0734     1.9237 O.3     
  46 C46            9.0058     2.2565     2.9344 C.3     
  47 N47            3.0416     5.9899    -2.2309 N.2     
  48 C48            2.2972     6.6438    -3.0894 C.2     
  49 C49            0.9820     6.3990    -3.0267 C.2     
  50 C50            2.8846     7.6122    -4.0835 C.3     
  51 C51            3.1236     6.8953    -5.4138 C.3     
  52 C52            1.9134     8.7748    -4.2979 C.3     
  53 C53           10.5203     2.4734     2.9402 C.3     
  54 O54           10.8073     3.8194     3.3249 O.3     
  55 C55           12.2020     4.1284     3.3623 C.3     
  56 C56           -1.9447    -2.1422     4.4513 C.3     
  57 H57            0.5416     2.0003     0.8765 H       
  58 H58           -0.8293     0.3672     2.0319 H       
  59 H59            0.6022     2.6356     4.8413 H       
  60 H60            0.5908     3.8640     2.8671 H       
  61 H61           -0.9771     3.1691     2.3406 H       
  62 H62           -1.2668     4.5418     4.8809 H       
  63 H63            1.2309    -0.8277     1.2766 H       
  64 H64            2.0923    -0.2949     2.7447 H       
  65 H65           -0.2736    -2.0507     2.6643 H       
  66 H66            1.4353    -1.7749     4.9665 H       
  67 H67            0.7576    -4.1901     5.0692 H       
  68 H68           -0.9694    -4.6198     5.0354 H       
  69 H69           -0.1740    -4.0144     3.5626 H       
  70 H70           -1.0644    -1.4251     6.8434 H       
  71 H71           -1.2582    -3.1902     6.9661 H       
  72 H72            0.3699    -2.4709     6.9748 H       
  73 H73           -3.1023     3.3286     2.9240 H       
  74 H74           -5.1886     5.7762     1.8410 H       
  75 H75           -2.7942     3.4715     7.5404 H       
  76 H76           -2.5850     5.8481     6.6761 H       
  77 H77           -4.3861     5.8626     6.2799 H       
  78 H78           -7.2050     6.0313     0.3234 H       
  79 H79           -7.5107     4.2153     0.4246 H       
  80 H80           -7.7848     4.4015     2.9394 H       
  81 H81           -7.4791     6.2175     2.8383 H       
  82 H82           -5.8433     3.9383     6.9736 H       
  83 H83           -4.2645     1.6055     8.1035 H       
  84 H84           -6.1205     1.8372     8.0783 H       
  85 H85            1.2308     3.4839     0.2931 H       
  86 H86            6.8400     1.5569     3.3607 H       
  87 H87            4.4192     1.3959     3.1488 H       
  88 H88            8.5963     2.5270     3.9077 H       
  89 H89            8.7897     1.2082     2.7280 H       
  90 H90            0.2241     6.8450    -3.6537 H       
  91 H91            3.8311     7.9951    -3.7019 H       
  92 H92            2.1771     6.5124    -5.7954 H       
  93 H93            3.5485     7.5958    -6.1328 H       
  94 H94            3.8155     6.0671    -5.2611 H       
  95 H95            1.7431     9.2855    -3.3501 H       
  96 H96            2.3383     9.4753    -5.0169 H       
  97 H97            0.9669     8.3919    -4.6795 H       
  98 H98           10.9831     1.7865     3.6488 H       
  99 H99           10.9177     2.2881     1.9423 H       
 100 H100          12.3359     5.1676     3.6627 H       
 101 H101          12.6996     3.4759     4.0797 H       
 102 H102          12.6342     3.9775     2.3731 H       
 103 H103          -1.9036    -2.2223     3.3650 H       
 104 H104          -2.6990    -2.8276     4.8378 H       
 105 H105          -2.2042    -1.1211     4.7308 H       
@<TRIPOS>BOND
   1    1    2 1
   2    1    6 1
   3    1    5 1
   4    1   57 1
   5    2    3 1
   6    2   10 1
   7    2   58 1
   8    3    4 1
   9    3   13 am
  10    4    5 1
  11    4    7 1
  12    4   59 1
  13    5   60 1
  14    5   61 1
  15    6   32 1
  16    7    8 2
  17    7    9 am
  18    9   18 1
  19    9   62 1
  20   10   11 1
  21   10   63 1
  22   10   64 1
  23   11   12 1
  24   11   65 1
  25   12   13 1
  26   12   15 1
  27   12   66 1
  28   13   14 2
  29   15   16 1
  30   15   17 1
  31   15   56 1
  32   16   67 1
  33   16   68 1
  34   16   69 1
  35   17   70 1
  36   17   71 1
  37   17   72 1
  38   18   19 1
  39   18   24 1
  40   18   25 1
  41   19   20 am
  42   19   21 2
  43   20   22 am
  44   20   73 1
  45   22   23 1
  46   22   28 2
  47   22   29 2
  48   23   26 1
  49   23   27 1
  50   23   74 1
  51   24   25 1
  52   24   30 1
  53   24   75 1
  54   25   76 1
  55   25   77 1
  56   26   27 1
  57   26   78 1
  58   26   79 1
  59   27   80 1
  60   27   81 1
  61   30   31 2
  62   30   82 1
  63   31   83 1
  64   31   84 1
  65   32   33 ar
  66   32   34 ar
  67   33   37 ar
  68   33   43 ar
  69   34   35 ar
  70   34   85 1
  71   35   36 ar
  72   35   38 1
  73   36   37 ar
  74   37   40 ar
  75   38   47 2
  76   38   39 1
  77   39   49 1
  78   40   41 ar
  79   40   44 1
  80   41   42 ar
  81   41   45 1
  82   42   43 ar
  83   42   86 1
  84   43   87 1
  85   45   46 1
  86   46   53 1
  87   46   88 1
  88   46   89 1
  89   47   48 1
  90   48   49 2
  91   48   50 1
  92   49   90 1
  93   50   51 1
  94   50   52 1
  95   50   91 1
  96   51   92 1
  97   51   93 1
  98   51   94 1
  99   52   95 1
 100   52   96 1
 101   52   97 1
 102   53   54 1
 103   53   98 1
 104   53   99 1
 105   54   55 1
 106   55  100 1
 107   55  101 1
 108   55  102 1
 109   56  103 1
 110   56  104 1
 111   56  105 1

#	End of record

