#	Name: ASD04570057
#	Creating user name:	WinNT
#	Creation time:	15. 06. 2019 20:50

#	Modifying user name:	WinNT
#	Modification time:	15. 06. 2019 20:50

#	Program:	/corina/corina34_cracker 3.40 0067  02.08.2006

@<TRIPOS>MOLECULE
ASD04570057
 368  372    0    0    0
SMALL
NO_CHARGES


@<TRIPOS>ATOM
   1 N1             2.8995     0.8304    -1.2954 N.am    
   2 C2             2.7190    -0.5028    -1.2152 C.2     
   3 C3             1.3252    -1.0716    -1.1455 C.3     
   4 N4             1.3974    -2.5326    -1.0648 N.am    
   5 C5             0.3612    -3.2830    -1.4887 C.2     
   6 C6             0.4355    -4.7859    -1.4057 C.3     
   7 N7            -0.8059    -5.3656    -1.9244 N.am    
   8 C8            -0.9662    -6.7035    -1.9487 C.2     
   9 C9            -2.2432    -7.2999    -2.4823 C.3     
  10 N10           -2.1709    -8.7609    -2.4016 N.am    
  11 C11           -2.9108    -9.5192    -3.2347 C.2     
  12 O12           -2.8444   -10.8619    -3.1605 O.3     
  13 C13           -3.6688   -11.6149    -4.0887 C.3     
  14 C14           -2.8771   -11.8798    -5.3772 C.3     
  15 C15            4.2544     1.3833    -1.3632 C.3     
  16 C16            4.2145     2.7293    -2.0398 C.2     
  17 N17            5.3525     3.4298    -2.2144 N.am    
  18 C18            5.3137     4.7383    -2.8722 C.3     
  19 C19            4.9853     5.8017    -1.8562 C.2     
  20 C20            6.6778     5.0350    -3.4984 C.3     
  21 C21            6.9557     4.0280    -4.6163 C.3     
  22 C22            8.3198     4.3247    -5.2424 C.3     
  23 C23            8.5977     3.3178    -6.3603 C.3     
  24 N24            9.9074     3.6027    -6.9615 N.3     
  25 C25            4.4460     7.1345    -2.3079 C.3     
  26 O26            5.1543     5.5860    -0.6801 O.2     
  27 O27            3.1582     3.1820    -2.4274 O.2     
  28 C28            4.8124     1.5407     0.0527 C.3     
  29 C29            4.9699     0.1611     0.6951 C.3     
  30 C30            5.5195     0.3161     2.0897 C.2     
  31 N31            5.7422    -0.7734     2.8513 N.am    
  32 O32            5.7614     1.4212     2.5268 O.2     
  33 O33            3.6782    -1.2448    -1.1990 O.2     
  34 C34            0.6135    -0.5269     0.0946 C.3     
  35 C35           -0.8183    -0.9973     0.0992 C.ar    
  36 C36           -1.1511    -2.1893     0.7156 C.ar    
  37 C37           -2.4628    -2.6226     0.7213 C.ar    
  38 C38           -3.4465    -1.8606     0.1078 C.ar    
  39 C39           -3.1099    -0.6649    -0.5100 C.ar    
  40 C40           -1.7977    -0.2332    -0.5080 C.ar    
  41 O41           -4.7375    -2.2850     0.1116 O.3     
  42 O42           -0.6310    -2.7487    -1.9370 O.2     
  43 O43           -0.0827    -7.4276    -1.5412 O.2     
  44 C44           -3.4259    -6.8010    -1.6496 C.3     
  45 C45           -4.7323    -7.3055    -2.2658 C.3     
  46 S46           -6.1345    -6.7140    -1.2786 S.3     
  47 C47           -7.5676    -7.4029    -2.1517 C.3     
  48 H48           -1.5906    -9.1824    -1.7486 H       
  49 O49           -3.6378    -8.9911    -4.0526 O.2     
  50 C50           -2.0453   -13.1290    -5.1359 C.2     
  51 C51           -1.6180   -13.3867    -3.7177 C.3     
  52 C52           -2.8523   -13.6587    -2.8613 C.3     
  53 C53           -4.0673   -12.9448    -3.4520 C.3     
  54 C54           -1.7578   -13.9087    -6.1284 C.2     
  55 C55           -0.9670   -15.1736    -5.9875 C.3     
  56 C56           -1.0330   -15.6759    -4.5378 C.3     
  57 C57           -0.6181   -14.5329    -3.6117 C.3     
  58 C58           -0.0770   -16.8666    -4.4125 C.3     
  59 C59            0.0856   -17.3052    -2.9482 C.3     
  60 C60            0.4104   -16.1538    -2.0241 C.3     
  61 C61           -0.6234   -15.0391    -2.1627 C.3     
  62 C62           -0.8178   -18.0919    -5.0267 C.3     
  63 C63           -1.8171   -18.5093    -3.9255 C.3     
  64 C64           -1.2370   -17.9963    -2.5915 C.3     
  65 C65           -0.9368   -12.1239    -3.1865 C.3     
  66 H66            0.3759   -14.1799    -3.8866 H       
  67 H67           -2.0514   -15.9859    -4.3035 H       
  68 C68            1.2050   -18.3447    -2.8622 C.3     
  69 H69           -1.0544   -18.8313    -1.9151 H       
  70 C70           -2.1987   -16.9953    -1.9481 C.3     
  71 C71           -3.5634   -17.6568    -1.7458 C.3     
  72 C72           -4.5589   -16.6215    -1.2186 C.3     
  73 C73           -5.9236   -17.2830    -1.0164 C.3     
  74 C74           -6.9191   -16.2477    -0.4892 C.3     
  75 C75           -8.3117   -16.8759    -0.4051 C.3     
  76 C76           -6.4839   -15.7841     0.9023 C.3     
  77 C77           -1.6417   -16.5509    -0.5941 C.3     
  78 H78            2.1322     1.4236    -1.3123 H       
  79 H79            0.7703    -0.7840    -2.0385 H       
  80 H80            2.1910    -2.9599    -0.7063 H       
  81 H81            1.2781    -5.1413    -1.9989 H       
  82 H82            0.5704    -5.0861    -0.3666 H       
  83 H83           -1.5125    -4.7864    -2.2503 H       
  84 H84           -2.3780    -6.9996    -3.5214 H       
  85 H85           -4.5657   -11.0423    -4.3248 H       
  86 H86           -3.5629   -12.0441    -6.2083 H       
  87 H87           -2.2244   -11.0340    -5.5935 H       
  88 H88            4.8939     0.7091    -1.9328 H       
  89 H89            6.1974     3.0677    -1.9044 H       
  90 H90            4.5505     4.7312    -3.6504 H       
  91 H91            6.6767     6.0441    -3.9104 H       
  92 H92            7.4527     4.9546    -2.7360 H       
  93 H93            6.9568     3.0189    -4.2043 H       
  94 H94            6.1808     4.1084    -5.3786 H       
  95 H95            8.3187     5.3339    -5.6544 H       
  96 H96            9.0947     4.2444    -4.4801 H       
  97 H97            8.5988     2.3086    -5.9483 H       
  98 H98            7.8228     3.3981    -7.1226 H       
  99 H99           10.1144     2.9506    -7.7032 H       
 100 H100           9.9536     4.5544    -7.2934 H       
 101 H101           3.5090     6.9844    -2.8442 H       
 102 H102           4.2697     7.7685    -1.4390 H       
 103 H103           5.1692     7.6145    -2.9672 H       
 104 H104           5.7836     2.0336     0.0078 H       
 105 H105           4.1266     2.1428     0.6487 H       
 106 H106           3.9988    -0.3318     0.7400 H       
 107 H107           5.6558    -0.4411     0.0992 H       
 108 H108           5.5488    -1.6573     2.5017 H       
 109 H109           6.0960    -0.6736     3.7489 H       
 110 H110           1.1175    -0.8883     0.9909 H       
 111 H111           0.6379     0.5627     0.0783 H       
 112 H112          -0.3849    -2.7823     1.1928 H       
 113 H113          -2.7223    -3.5540     1.2026 H       
 114 H114          -3.8739    -0.0699    -0.9883 H       
 115 H115          -1.5352     0.6977    -0.9885 H       
 116 H116          -5.2505    -1.9770     0.8713 H       
 117 H117          -3.3364    -7.1761    -0.6301 H       
 118 H118          -3.4272    -5.7111    -1.6370 H       
 119 H119          -4.8218    -6.9304    -3.2853 H       
 120 H120          -4.7309    -8.3954    -2.2785 H       
 121 H121          -8.4825    -7.1069    -1.6384 H       
 122 H122          -7.5862    -7.0254    -3.1740 H       
 123 H123          -7.4953    -8.4904    -2.1672 H       
 124 H124          -3.0425   -14.7316    -2.8314 H       
 125 H125          -2.6769   -13.2959    -1.8485 H       
 126 H126          -4.7927   -12.7589    -2.6601 H       
 127 H127          -4.5225   -13.5820    -4.2102 H       
 128 H128          -2.1075   -13.6325    -7.1122 H       
 129 H129          -1.3779   -15.9332    -6.6526 H       
 130 H130           0.0718   -14.9827    -6.2572 H       
 131 H131           0.8827   -16.6709    -4.8906 H       
 132 H132           0.4168   -16.5111    -0.9944 H       
 133 H133           1.3965   -15.7614    -2.2729 H       
 134 H134          -0.3700   -14.2204    -1.4892 H       
 135 H135          -1.6121   -15.4253    -1.9146 H       
 136 H136          -1.3474   -17.8032    -5.9346 H       
 137 H137          -0.1157   -18.8998    -5.2326 H       
 138 H138          -2.7895   -18.0528    -4.1105 H       
 139 H139          -1.9122   -19.5948    -3.8989 H       
 140 H140          -1.2435   -11.2664    -3.7854 H       
 141 H141          -1.2268   -11.9642    -2.1480 H       
 142 H142           0.1451   -12.2415    -3.2477 H       
 143 H143           2.1363   -17.9062    -3.2206 H       
 144 H144           1.3275   -18.6618    -1.8265 H       
 145 H145           0.9485   -19.2067    -3.4781 H       
 146 H146          -2.3084   -16.1274    -2.5983 H       
 147 H147          -3.9199   -18.0523    -2.6969 H       
 148 H148          -3.4698   -18.4702    -1.0262 H       
 149 H149          -4.2023   -16.2260    -0.2676 H       
 150 H150          -4.6525   -15.8081    -1.9382 H       
 151 H151          -6.2802   -17.6785    -1.9675 H       
 152 H152          -5.8300   -18.0964    -0.2968 H       
 153 H153          -6.9464   -15.3929    -1.1650 H       
 154 H154          -8.2844   -17.7307     0.2707 H       
 155 H155          -9.0209   -16.1383    -0.0295 H       
 156 H156          -8.6218   -17.2062    -1.3965 H       
 157 H157          -5.4918   -15.3365     0.8424 H       
 158 H158          -7.1931   -15.0465     1.2779 H       
 159 H159          -6.4566   -16.6389     1.5781 H       
 160 H160          -1.4112   -17.4286     0.0097 H       
 161 H161          -0.7340   -15.9675    -0.7485 H       
 162 H162          -2.3830   -15.9400    -0.0790 H       
 163 C163          29.1184    44.1360    14.5085 C.3     
 164 C164          29.6190    42.7676    14.1239 C.2     
 165 N165          28.8229    41.6910    14.2778 N.am    
 166 C166          29.3096    40.3607    13.9040 C.3     
 167 C167          28.1380    39.4701    13.5794 C.2     
 168 N168          28.3461    38.1916    13.2072 N.am    
 169 C169          27.2072    37.3258    12.8917 C.3     
 170 C170          27.5958    35.8859    13.1076 C.2     
 171 N171          26.7007    34.9047    12.8785 N.am    
 172 O172          28.7140    35.6100    13.4877 O.2     
 173 C173          27.0785    33.5049    13.0884 C.3     
 174 C174          25.8438    32.6884    13.3711 C.2     
 175 C175          27.7678    32.9688    11.8321 C.3     
 176 O176          26.8362    32.9506    10.7486 O.3     
 177 C177          27.3821    32.4639     9.5209 C.3     
 178 N178          25.9490    31.3640    13.5975 N.am    
 179 O179          24.7555    33.2231    13.3950 O.2     
 180 C180          24.7488    30.5702    13.8724 C.3     
 181 C181          25.1271    29.3452    14.6645 C.2     
 182 N182          24.1989    28.7092    15.4063 N.am    
 183 O183          26.2669    28.9318    14.6344 O.2     
 184 C184          24.5456    27.4720    16.1102 C.3     
 185 C185          23.4854    26.4328    15.8513 C.2     
 186 O186          22.5339    26.6993    15.1481 O.2     
 187 N187          23.5947    25.2072    16.4013 N.am    
 188 C188          22.5640    24.1969    16.1496 C.3     
 189 C189          21.4163    24.3804    17.1446 C.3     
 190 C190          23.1576    22.8216    16.3154 C.2     
 191 O191          24.3264    22.6976    16.6144 O.2     
 192 N192          22.3895    21.7295    16.1315 N.am    
 193 C193          22.9665    20.3926    16.2927 C.3     
 194 C194          22.9241    19.9935    17.7691 C.3     
 195 C195          22.1723    19.4016    15.4814 C.2     
 196 O196          21.2183    19.7752    14.8325 O.2     
 197 N197          22.5223    18.1001    15.4770 N.am    
 198 C198          21.7502    17.1366    14.6883 C.3     
 199 C199          22.6356    15.9394    14.3367 C.3     
 200 C200          20.5645    16.6661    15.4907 C.2     
 201 O201          20.3823    17.0934    16.6110 O.2     
 202 N202          19.7066    15.7704    14.9633 N.am    
 203 C203          23.7708    16.3968    13.4186 C.3     
 204 C204          24.6562    15.1996    13.0670 C.3     
 205 N205          25.7432    15.6376    12.1878 N.pl3   
 206 C206          26.6718    14.7291    11.7377 C.2     
 207 C207          24.1052    30.1445    12.5512 C.3     
 208 C208          22.7958    29.4062    12.8363 C.3     
 209 O209          23.8363    31.3021    11.7576 O.3     
 210 C210          24.6337    27.7475    17.6126 C.3     
 211 C211          25.8111    28.6462    17.8904 C.2     
 212 O212          26.0347    29.0936    19.1360 O.3     
 213 O213          26.5538    28.9639    16.9919 O.2     
 214 C214          20.7337    25.7263    16.8932 C.3     
 215 C215          19.5859    25.9098    17.8881 C.3     
 216 C216          18.9033    27.2558    17.6367 C.3     
 217 N217          17.8013    27.4320    18.5920 N.3     
 218 C218          23.8170    20.9115    18.5635 C.ar    
 219 C219          23.3042    22.0770    19.1023 C.ar    
 220 C220          25.1463    20.5840    18.7571 C.ar    
 221 C221          25.9667    21.4236    19.4853 C.ar    
 222 C222          25.4559    22.5962    20.0225 C.ar    
 223 C223          24.1206    22.9202    19.8309 C.ar    
 224 N224          26.5802    13.4095    12.1126 N.pl3   
 225 N225          27.6388    15.1187    10.9556 N.2     
 226 C226          26.8001    37.5307    11.4312 C.3     
 227 O227          27.8572    37.0914    10.5759 O.3     
 228 O228          27.0078    39.9039    13.6531 O.2     
 229 C229          30.0991    39.7605    15.0690 C.3     
 230 C230          31.3563    40.5963    15.3173 C.3     
 231 C231          32.1459    39.9961    16.4823 C.3     
 232 N232          33.3497    40.7964    16.7202 N.pl3   
 233 C233          34.2203    40.4465    17.7250 C.2     
 234 N234          35.3501    41.1976    17.9482 N.pl3   
 235 N235          33.9747    39.4028    18.4661 N.2     
 236 O236          30.7382    42.6351    13.6760 O.2     
 237 C237          18.5540    15.3130    15.7433 C.3     
 238 C238          18.9715    14.1717    16.6345 C.2     
 239 C239          17.4505    14.8414    14.7940 C.3     
 240 C240          16.9940    16.0122    13.9212 C.3     
 241 N241          18.0698    13.5873    17.4481 N.am    
 242 O242          20.1189    13.7791    16.6196 O.2     
 243 C243          16.0157    15.5056    12.8595 C.3     
 244 O244          26.2609    23.4237    20.7396 O.3     
 245 N245          30.1632    45.1293    14.2475 N.am    
 246 C246          27.8752    44.4747    13.6836 C.3     
 247 C247          30.1795    46.2872    14.9371 C.2     
 248 C248          27.2945    45.8076    14.1601 C.3     
 249 C249          26.1271    46.2077    13.2557 C.3     
 250 C250          26.7976    45.6618    15.5998 C.3     
 251 C251          16.3010    17.0598    14.7948 C.3     
 252 C252          31.2542    47.3090    14.6686 C.3     
 253 O253          29.3293    46.5068    15.7736 O.2     
 254 N254          30.7488    48.6488    14.9963 N.3     
 255 C255          32.4786    47.0004    15.5326 C.3     
 256 C256          33.6133    47.9607    15.1706 C.3     
 257 C257          34.8377    47.6521    16.0346 C.3     
 258 C258          35.9725    48.6124    15.6727 C.3     
 259 N259          37.1481    48.3161    16.5022 N.3     
 260 C260          29.9865    49.2128    13.8743 C.3     
 261 H261          28.8648    44.1454    15.5686 H       
 262 H262          27.9278    41.7969    14.6361 H       
 263 H263          29.9565    40.4427    13.0306 H       
 264 H264          29.2500    37.8447    13.1482 H       
 265 H265          26.3688    37.5773    13.5413 H       
 266 H266          25.8064    35.1254    12.5745 H       
 267 H267          27.7615    33.4359    13.9351 H       
 268 H268          28.6095    33.6125    11.5767 H       
 269 H269          28.1277    31.9570    12.0188 H       
 270 H270          28.2158    33.0971     9.2176 H       
 271 H271          27.7340    31.4416     9.6597 H       
 272 H272          26.6128    32.4816     8.7489 H       
 273 H273          26.8195    30.9363    13.5785 H       
 274 H274          24.0406    31.1688    14.4452 H       
 275 H275          23.3013    29.0705    15.4742 H       
 276 H276          25.5077    27.1069    15.7508 H       
 277 H277          24.3557    24.9940    16.9637 H       
 278 H278          22.1856    24.3092    15.1336 H       
 279 H279          20.6920    23.5760    17.0161 H       
 280 H280          21.8093    24.3565    18.1610 H       
 281 H281          21.4547    21.8287    15.8924 H       
 282 H282          24.0004    20.3991    15.9476 H       
 283 H283          21.9014    20.0728    18.1377 H       
 284 H284          23.2708    18.9658    17.8777 H       
 285 H285          23.2853    17.8012    15.9960 H       
 286 H286          21.4026    17.6131    13.7716 H       
 287 H287          23.0548    15.5169    15.2499 H       
 288 H288          22.0385    15.1832    13.8272 H       
 289 H289          19.8523    15.4286    14.0672 H       
 290 H290          23.3517    16.8194    12.5054 H       
 291 H291          24.3679    17.1531    13.9281 H       
 292 H292          25.0754    14.7771    13.9802 H       
 293 H293          24.0592    14.4433    12.5574 H       
 294 H294          25.8078    16.5686    11.9233 H       
 295 H295          24.7847    29.4843    12.0122 H       
 296 H296          22.1123    30.0698    13.3659 H       
 297 H297          22.3427    29.0935    11.8955 H       
 298 H298          22.9996    28.5291    13.4506 H       
 299 H299          24.6229    31.8199    11.5381 H       
 300 H300          23.7178    28.2349    17.9469 H       
 301 H301          24.7606    26.8065    18.1477 H       
 302 H302          26.8023    29.6674    19.2651 H       
 303 H303          21.4580    26.5307    17.0216 H       
 304 H304          20.3407    25.7502    15.8768 H       
 305 H305          18.8616    25.1055    17.7597 H       
 306 H306          19.9789    25.8860    18.9046 H       
 307 H307          19.6276    28.0601    17.7652 H       
 308 H308          18.5103    27.2796    16.6203 H       
 309 H309          17.3341    28.3143    18.4464 H       
 310 H310          17.1491    26.6641    18.5373 H       
 311 H311          22.2645    22.3286    18.9531 H       
 312 H312          25.5434    19.6708    18.3390 H       
 313 H313          27.0049    21.1671    19.6366 H       
 314 H314          23.7205    23.8325    20.2480 H       
 315 H315          25.8605    13.1195    12.6947 H       
 316 H316          27.2353    12.7685    11.7951 H       
 317 H317          28.2939    14.4777    10.6380 H       
 318 H318          25.8992    36.9543    11.2208 H       
 319 H319          26.6045    38.5882    11.2534 H       
 320 H320          27.6678    37.1920     9.6330 H       
 321 H321          29.4797    39.7604    15.9659 H       
 322 H322          30.3853    38.7374    14.8250 H       
 323 H323          31.9757    40.5963    14.4204 H       
 324 H324          31.0701    41.6194    15.5613 H       
 325 H325          31.5265    39.9960    17.3793 H       
 326 H326          32.4321    38.9730    16.2384 H       
 327 H327          33.5324    41.5732    16.1687 H       
 328 H328          35.5328    41.9744    17.3968 H       
 329 H329          35.9643    40.9508    18.6572 H       
 330 H330          34.5890    39.1559    19.1750 H       
 331 H331          18.1805    16.1340    16.3552 H       
 332 H332          17.8342    14.0429    14.1591 H       
 333 H333          16.6060    14.4701    15.3746 H       
 334 H334          17.8594    16.4608    13.4334 H       
 335 H335          17.1522    13.9013    17.4600 H       
 336 H336          18.3386    12.8527    18.0217 H       
 337 H337          15.1144    15.1314    13.3449 H       
 338 H338          15.7539    16.3227    12.1873 H       
 339 H339          16.4820    14.7018    12.2898 H       
 340 H340          26.7085    24.0955    20.2073 H       
 341 H341          30.8431    44.9536    13.5785 H       
 342 H342          28.1476    44.5526    12.6311 H       
 343 H343          27.1307    43.6885    13.8090 H       
 344 H344          28.0665    46.5759    14.1182 H       
 345 H345          25.3551    45.4393    13.2977 H       
 346 H346          25.7134    47.1573    13.5952 H       
 347 H347          26.4810    46.3115    12.2301 H       
 348 H348          26.0256    44.8935    15.6417 H       
 349 H349          27.6293    45.3768    16.2441 H       
 350 H350          26.3839    46.6114    15.9393 H       
 351 H351          16.9979    17.4207    15.5512 H       
 352 H352          15.9757    17.8938    14.1730 H       
 353 H353          15.4356    16.6111    15.2826 H       
 354 H354          31.5342    47.2737    13.6158 H       
 355 H355          30.1926    48.6296    15.8379 H       
 356 H356          32.2210    47.1224    16.5847 H       
 357 H357          32.8000    45.9743    15.3539 H       
 358 H358          33.8709    47.8386    14.1186 H       
 359 H359          33.2918    48.9868    15.3493 H       
 360 H360          34.5801    47.7742    17.0867 H       
 361 H361          35.1592    46.6260    15.8560 H       
 362 H362          36.2301    48.4904    14.6206 H       
 363 H363          35.6510    49.6385    15.8513 H       
 364 H364          37.4266    47.3514    16.4032 H       
 365 H365          37.9119    48.9375    16.2820 H       
 366 H366          30.6048    49.2093    12.9767 H       
 367 H367          29.0937    48.6115    13.7028 H       
 368 H368          29.6953    50.2362    14.1109 H       
@<TRIPOS>BOND
   1    1    2 am
   2    1   15 1
   3    1   78 1
   4    2    3 1
   5    2   33 2
   6    3    4 1
   7    3   34 1
   8    3   79 1
   9    4    5 am
  10    4   80 1
  11    5    6 1
  12    5   42 2
  13    6    7 1
  14    6   81 1
  15    6   82 1
  16    7    8 am
  17    7   83 1
  18    8    9 1
  19    8   43 2
  20    9   10 1
  21    9   44 1
  22    9   84 1
  23   10   11 am
  24   10   48 1
  25   11   12 1
  26   11   49 2
  27   12   13 1
  28   13   14 1
  29   13   53 1
  30   13   85 1
  31   14   50 1
  32   14   86 1
  33   14   87 1
  34   15   16 1
  35   15   28 1
  36   15   88 1
  37   16   17 am
  38   16   27 2
  39   17   18 1
  40   17   89 1
  41   18   19 1
  42   18   20 1
  43   18   90 1
  44   19   25 1
  45   19   26 2
  46   20   21 1
  47   20   91 1
  48   20   92 1
  49   21   22 1
  50   21   93 1
  51   21   94 1
  52   22   23 1
  53   22   95 1
  54   22   96 1
  55   23   24 1
  56   23   97 1
  57   23   98 1
  58   24   99 1
  59   24  100 1
  60   25  101 1
  61   25  102 1
  62   25  103 1
  63   28   29 1
  64   28  104 1
  65   28  105 1
  66   29   30 1
  67   29  106 1
  68   29  107 1
  69   30   31 am
  70   30   32 2
  71   31  108 1
  72   31  109 1
  73   34   35 1
  74   34  110 1
  75   34  111 1
  76   35   36 ar
  77   35   40 ar
  78   36   37 ar
  79   36  112 1
  80   37   38 ar
  81   37  113 1
  82   38   39 ar
  83   38   41 1
  84   39   40 ar
  85   39  114 1
  86   40  115 1
  87   41  116 1
  88   44   45 1
  89   44  117 1
  90   44  118 1
  91   45   46 1
  92   45  119 1
  93   45  120 1
  94   46   47 1
  95   47  121 1
  96   47  122 1
  97   47  123 1
  98   50   51 1
  99   50   54 2
 100   51   52 1
 101   51   57 1
 102   51   65 1
 103   52   53 1
 104   52  124 1
 105   52  125 1
 106   53  126 1
 107   53  127 1
 108   54   55 1
 109   54  128 1
 110   55   56 1
 111   55  129 1
 112   55  130 1
 113   56   57 1
 114   56   67 1
 115   56   58 1
 116   57   66 1
 117   57   61 1
 118   58   59 1
 119   58   62 1
 120   58  131 1
 121   59   60 1
 122   59   64 1
 123   59   68 1
 124   60   61 1
 125   60  132 1
 126   60  133 1
 127   61  134 1
 128   61  135 1
 129   62   63 1
 130   62  136 1
 131   62  137 1
 132   63   64 1
 133   63  138 1
 134   63  139 1
 135   64   69 1
 136   64   70 1
 137   65  140 1
 138   65  141 1
 139   65  142 1
 140   68  143 1
 141   68  144 1
 142   68  145 1
 143   70   71 1
 144   70   77 1
 145   70  146 1
 146   71   72 1
 147   71  147 1
 148   71  148 1
 149   72   73 1
 150   72  149 1
 151   72  150 1
 152   73   74 1
 153   73  151 1
 154   73  152 1
 155   74   75 1
 156   74   76 1
 157   74  153 1
 158   75  154 1
 159   75  155 1
 160   75  156 1
 161   76  157 1
 162   76  158 1
 163   76  159 1
 164   77  160 1
 165   77  161 1
 166   77  162 1
 167  163  164 1
 168  163  245 1
 169  163  246 1
 170  163  261 1
 171  164  165 am
 172  164  236 2
 173  165  166 1
 174  165  262 1
 175  166  167 1
 176  166  229 1
 177  166  263 1
 178  167  168 am
 179  167  228 2
 180  168  169 1
 181  168  264 1
 182  169  170 1
 183  169  226 1
 184  169  265 1
 185  170  171 am
 186  170  172 2
 187  171  173 1
 188  171  266 1
 189  173  174 1
 190  173  175 1
 191  173  267 1
 192  174  178 am
 193  174  179 2
 194  175  176 1
 195  175  268 1
 196  175  269 1
 197  176  177 1
 198  177  270 1
 199  177  271 1
 200  177  272 1
 201  178  180 1
 202  178  273 1
 203  180  181 1
 204  180  207 1
 205  180  274 1
 206  181  182 am
 207  181  183 2
 208  182  184 1
 209  182  275 1
 210  184  185 1
 211  184  210 1
 212  184  276 1
 213  185  186 2
 214  185  187 am
 215  187  188 1
 216  187  277 1
 217  188  189 1
 218  188  190 1
 219  188  278 1
 220  189  214 1
 221  189  279 1
 222  189  280 1
 223  190  191 2
 224  190  192 am
 225  192  193 1
 226  192  281 1
 227  193  194 1
 228  193  195 1
 229  193  282 1
 230  194  218 1
 231  194  283 1
 232  194  284 1
 233  195  196 2
 234  195  197 am
 235  197  198 1
 236  197  285 1
 237  198  199 1
 238  198  200 1
 239  198  286 1
 240  199  203 1
 241  199  287 1
 242  199  288 1
 243  200  201 2
 244  200  202 am
 245  202  237 1
 246  202  289 1
 247  203  204 1
 248  203  290 1
 249  203  291 1
 250  204  205 1
 251  204  292 1
 252  204  293 1
 253  205  206 1
 254  205  294 1
 255  206  224 1
 256  206  225 2
 257  207  208 1
 258  207  209 1
 259  207  295 1
 260  208  296 1
 261  208  297 1
 262  208  298 1
 263  209  299 1
 264  210  211 1
 265  210  300 1
 266  210  301 1
 267  211  212 1
 268  211  213 2
 269  212  302 1
 270  214  215 1
 271  214  303 1
 272  214  304 1
 273  215  216 1
 274  215  305 1
 275  215  306 1
 276  216  217 1
 277  216  307 1
 278  216  308 1
 279  217  309 1
 280  217  310 1
 281  218  219 ar
 282  218  220 ar
 283  219  223 ar
 284  219  311 1
 285  220  221 ar
 286  220  312 1
 287  221  222 ar
 288  221  313 1
 289  222  223 ar
 290  222  244 1
 291  223  314 1
 292  224  315 1
 293  224  316 1
 294  225  317 1
 295  226  227 1
 296  226  318 1
 297  226  319 1
 298  227  320 1
 299  229  230 1
 300  229  321 1
 301  229  322 1
 302  230  231 1
 303  230  323 1
 304  230  324 1
 305  231  232 1
 306  231  325 1
 307  231  326 1
 308  232  233 1
 309  232  327 1
 310  233  234 1
 311  233  235 2
 312  234  328 1
 313  234  329 1
 314  235  330 1
 315  237  238 1
 316  237  239 1
 317  237  331 1
 318  238  241 am
 319  238  242 2
 320  239  240 1
 321  239  332 1
 322  239  333 1
 323  240  243 1
 324  240  251 1
 325  240  334 1
 326  241  335 1
 327  241  336 1
 328  243  337 1
 329  243  338 1
 330  243  339 1
 331  244  340 1
 332  245  247 am
 333  245  341 1
 334  246  248 1
 335  246  342 1
 336  246  343 1
 337  247  252 1
 338  247  253 2
 339  248  249 1
 340  248  250 1
 341  248  344 1
 342  249  345 1
 343  249  346 1
 344  249  347 1
 345  250  348 1
 346  250  349 1
 347  250  350 1
 348  251  351 1
 349  251  352 1
 350  251  353 1
 351  252  254 1
 352  252  255 1
 353  252  354 1
 354  254  260 1
 355  254  355 1
 356  255  256 1
 357  255  356 1
 358  255  357 1
 359  256  257 1
 360  256  358 1
 361  256  359 1
 362  257  258 1
 363  257  360 1
 364  257  361 1
 365  258  259 1
 366  258  362 1
 367  258  363 1
 368  259  364 1
 369  259  365 1
 370  260  366 1
 371  260  367 1
 372  260  368 1

#	End of record

