#	Name: ASD04590827
#	Creating user name:	WinNT
#	Creation time:	15. 06. 2019 20:51

#	Modifying user name:	WinNT
#	Modification time:	15. 06. 2019 20:51

#	Program:	/corina/corina34_cracker 3.40 0067  02.08.2006

@<TRIPOS>MOLECULE
ASD04590827
  52   57    0    0    0
SMALL
NO_CHARGES


@<TRIPOS>ATOM
   1 N1            -0.0170     1.3231    -0.0113 N.ar    
   2 C2             0.0017    -0.0035    -0.0049 C.ar    
   3 N3             1.1297    -0.6949    -0.0118 N.ar    
   4 C4             2.3049    -0.0730    -0.0260 C.ar    
   5 C5             2.3189     1.3364    -0.0335 C.ar    
   6 C6             1.1072     2.0201    -0.0254 C.ar    
   7 N7             3.6030    -0.5197    -0.0361 N.pl3   
   8 C8             4.4823     0.5493    -0.0502 C.ar    
   9 C9             3.7312     1.7383    -0.0492 C.ar    
  10 C10            5.8680     0.6415    -0.0647 C.ar    
  11 N11            6.4613     1.8177    -0.0772 N.ar    
  12 C12            5.7851     2.9529    -0.0767 C.ar    
  13 C13            4.4065     2.9582    -0.0621 C.ar    
  14 N14           -1.2023    -0.6889     0.0098 N.pl3   
  15 C15           -2.3991     0.0100     0.1300 C.ar    
  16 N16           -2.3853     1.3202     0.3310 N.ar    
  17 N17           -3.4644     2.0054     0.4474 N.ar    
  18 C18           -4.6653     1.4477     0.3742 C.ar    
  19 C19           -4.7802     0.0695     0.1639 C.ar    
  20 C20           -3.6160    -0.6663     0.0334 C.ar    
  21 C21           -5.8830     2.2827     0.5155 C.ar    
  22 C22           -7.1543     1.6992     0.5450 C.ar    
  23 C23           -8.2620     2.5092     0.6782 C.ar    
  24 N24           -8.1370     3.8193     0.7773 N.ar    
  25 C25           -6.9550     4.4134     0.7541 C.ar    
  26 C26           -5.7906     3.6708     0.6284 C.ar    
  27 C27            4.0016    -1.9294    -0.0320 C.3     
  28 C28            3.4611    -2.6264     1.2289 C.3     
  29 C29            2.5278    -3.7545     0.7431 C.3     
  30 C30            3.0198    -4.0625    -0.6930 C.3     
  31 C31            3.3779    -2.6584    -1.2401 C.3     
  32 O32           -6.8810     5.7642     0.8591 O.3     
  33 H33            1.0849     3.0999    -0.0309 H       
  34 H34            6.4644    -0.2589    -0.0653 H       
  35 H35            6.3205     3.8908    -0.0874 H       
  36 H36            3.8598     3.8896    -0.0620 H       
  37 H37           -1.2107    -1.6561    -0.0636 H       
  38 H38           -5.7484    -0.4051     0.1014 H       
  39 H39           -3.6478    -1.7333    -0.1303 H       
  40 H40           -7.2664     0.6281     0.4642 H       
  41 H41           -9.2462     2.0652     0.7013 H       
  42 H42           -4.8277     4.1596     0.6098 H       
  43 H43            5.0880    -2.0101    -0.0666 H       
  44 H44            4.2852    -3.0460     1.8058 H       
  45 H45            2.9023    -1.9157     1.8378 H       
  46 H46            2.6302    -4.6344     1.3783 H       
  47 H47            1.4929    -3.4130     0.7267 H       
  48 H48            3.9004    -4.7044    -0.6703 H       
  49 H49            2.2248    -4.5164    -1.2846 H       
  50 H50            2.4802    -2.1398    -1.5767 H       
  51 H51            4.1005    -2.7383    -2.0522 H       
  52 H52           -6.8064     6.0845     1.7685 H       
@<TRIPOS>BOND
   1    1    2 ar
   2    1    6 ar
   3    2    3 ar
   4    2   14 1
   5    3    4 ar
   6    4    5 ar
   7    4    7 1
   8    5    6 ar
   9    5    9 1
  10    6   33 1
  11    7    8 1
  12    7   27 1
  13    8    9 ar
  14    8   10 ar
  15    9   13 ar
  16   10   11 ar
  17   10   34 1
  18   11   12 ar
  19   12   13 ar
  20   12   35 1
  21   13   36 1
  22   14   15 1
  23   14   37 1
  24   15   16 ar
  25   15   20 ar
  26   16   17 ar
  27   17   18 ar
  28   18   19 ar
  29   18   21 1
  30   19   20 ar
  31   19   38 1
  32   20   39 1
  33   21   22 ar
  34   21   26 ar
  35   22   23 ar
  36   22   40 1
  37   23   24 ar
  38   23   41 1
  39   24   25 ar
  40   25   26 ar
  41   25   32 1
  42   26   42 1
  43   27   28 1
  44   27   31 1
  45   27   43 1
  46   28   29 1
  47   28   44 1
  48   28   45 1
  49   29   30 1
  50   29   46 1
  51   29   47 1
  52   30   31 1
  53   30   48 1
  54   30   49 1
  55   31   50 1
  56   31   51 1
  57   32   52 1

#	End of record

