#	Name: ASD03092504
#	Creating user name:	WinNT
#	Creation time:	15. 06. 2019 20:32

#	Modifying user name:	WinNT
#	Modification time:	15. 06. 2019 20:32

#	Program:	/corina/corina34_cracker 3.40 0067  02.08.2006

@<TRIPOS>MOLECULE
ASD03092504
  56   60    0    0    0
SMALL
NO_CHARGES


@<TRIPOS>ATOM
   1 O1             0.8904     1.0034    -0.3453 O.3     
   2 N2             0.7497    -0.1960    -0.2857 N.2     
   3 C3             1.9049    -0.8118    -0.2408 C.2     
   4 C4             2.8975     0.2067    -0.2811 C.2     
   5 C5             2.1837     1.3543    -0.3480 C.2     
   6 C6             2.1323    -2.2756    -0.1634 C.2     
   7 O7             3.2651    -2.7133    -0.1274 O.2     
   8 N8             1.0823    -3.1200    -0.1332 N.am    
   9 C9             2.7360     2.7550    -0.4134 C.3     
  10 C10            1.3069    -4.5657    -0.0568 C.3     
  11 S11           -2.1402    -6.4574     0.6760 S.3     
  12 C12           -1.8181    -6.1986    -0.9828 C.2     
  13 N13           -0.6847    -5.5811    -1.1309 N.2     
  14 C14           -0.0200    -5.2798    -0.0366 C.2     
  15 C15           -0.6265    -5.6650     1.1057 C.2     
  16 C16           -4.7519    -7.6384    -2.6925 C.3     
  17 C17           -3.8484    -7.2644    -1.5070 C.3     
  18 N18           -2.6456    -6.5910    -2.0191 N.3     
  19 C19           -2.9984    -5.4475    -2.8736 C.3     
  20 C20           -3.9518    -5.9281    -3.9790 C.3     
  21 C21           -3.3344    -7.1934    -4.6206 C.3     
  22 C22           -3.8757    -8.3503    -3.7504 C.3     
  23 O23           -5.1545    -6.4049    -3.3321 O.3     
  24 C24            0.3997    -6.2716     4.6671 C.ar    
  25 C25           -0.0891    -6.5091     3.4007 C.ar    
  26 C26           -0.1126    -5.4584     2.4738 C.ar    
  27 C27            0.3658    -4.2062     2.8821 C.ar    
  28 C28            0.8369    -4.0585     4.1687 C.ar    
  29 N29            0.8411    -5.0756     5.0104 N.ar    
  30 C30            1.3548    -2.7175     4.6211 C.3     
  31 C31            0.4251    -7.3908     5.6758 C.3     
  32 H32            3.9711     0.0908    -0.2620 H       
  33 H33            0.1779    -2.7705    -0.1620 H       
  34 H34            1.9130     3.4682    -0.4593 H       
  35 H35            3.3370     2.9504     0.4747 H       
  36 H36            3.3573     2.8594    -1.3028 H       
  37 H37            1.8811    -4.8905    -0.9245 H       
  38 H38            1.8595    -4.7999     0.8530 H       
  39 H39           -5.6009    -8.2483    -2.3840 H       
  40 H40           -4.3850    -6.5932    -0.8365 H       
  41 H41           -3.5600    -8.1673    -0.9688 H       
  42 H42           -3.4910    -4.6819    -2.2741 H       
  43 H43           -2.0952    -5.0359    -3.3241 H       
  44 H44           -4.1511    -5.1494    -4.7151 H       
  45 H45           -3.6690    -7.3015    -5.6523 H       
  46 H46           -2.2461    -7.1549    -4.5722 H       
  47 H47           -3.0556    -8.8848    -3.2711 H       
  48 H48           -4.4785    -9.0314    -4.3511 H       
  49 H49           -0.4481    -7.4901     3.1267 H       
  50 H50            0.3657    -3.3698     2.1989 H       
  51 H51            0.5363    -2.1364     5.0459 H       
  52 H52            2.1277    -2.8624     5.3759 H       
  53 H53            1.7750    -2.1839     3.7685 H       
  54 H54            1.3738    -7.9228     5.6044 H       
  55 H55            0.3143    -6.9786     6.6788 H       
  56 H56           -0.3944    -8.0806     5.4740 H       
@<TRIPOS>BOND
   1    1    2 1
   2    1    5 1
   3    2    3 2
   4    3    4 1
   5    3    6 1
   6    4    5 2
   7    4   32 1
   8    5    9 1
   9    6    7 2
  10    6    8 am
  11    8   10 1
  12    8   33 1
  13    9   34 1
  14    9   35 1
  15    9   36 1
  16   10   14 1
  17   10   37 1
  18   10   38 1
  19   11   12 1
  20   11   15 1
  21   12   13 2
  22   12   18 1
  23   13   14 1
  24   14   15 2
  25   15   26 1
  26   16   17 1
  27   16   22 1
  28   16   23 1
  29   16   39 1
  30   17   18 1
  31   17   40 1
  32   17   41 1
  33   18   19 1
  34   19   20 1
  35   19   42 1
  36   19   43 1
  37   20   21 1
  38   20   23 1
  39   20   44 1
  40   21   22 1
  41   21   45 1
  42   21   46 1
  43   22   47 1
  44   22   48 1
  45   24   25 ar
  46   24   29 ar
  47   24   31 1
  48   25   26 ar
  49   25   49 1
  50   26   27 ar
  51   27   28 ar
  52   27   50 1
  53   28   29 ar
  54   28   30 1
  55   30   51 1
  56   30   52 1
  57   30   53 1
  58   31   54 1
  59   31   55 1
  60   31   56 1

#	End of record

