#	Name: ASD03430498
#	Creating user name:	WinNT
#	Creation time:	15. 06. 2019 20:41

#	Modifying user name:	WinNT
#	Modification time:	15. 06. 2019 20:41

#	Program:	/corina/corina34_cracker 3.40 0067  02.08.2006

@<TRIPOS>MOLECULE
ASD03430498
  53   58    0    0    0
SMALL
NO_CHARGES


@<TRIPOS>ATOM
   1 C1            -0.0168     1.3905     0.0097 C.ar    
   2 C2             0.0021    -0.0041     0.0020 C.ar    
   3 C3             1.2079    -0.6748    -0.0131 C.ar    
   4 C4             2.3964     0.0332    -0.0206 C.ar    
   5 C5             2.3841     1.4165    -0.0126 C.ar    
   6 C6             1.1847     2.0986     0.0020 C.ar    
   7 C7            -1.3072     2.1163     0.0197 C.2     
   8 N8            -2.4262     1.4533     0.0214 N.2     
   9 N9            -1.3228     3.5008     0.0273 N.pl3   
  10 C10            3.7098    -0.7055    -0.0372 C.3     
  11 O11            6.5793    -0.6709    -5.2514 O.3     
  12 C12            5.5544     0.1598    -5.5953 C.ar    
  13 C13            4.5825     0.1993    -4.5983 C.ar    
  14 C14            5.0649    -0.6993    -3.4922 C.3     
  15 C15            6.5477    -0.9068    -3.8309 C.3     
  16 O16            3.8828     2.5186    -7.9384 O.3     
  17 C17            4.2413     1.7072    -6.9050 C.ar    
  18 C18            3.2806     1.7191    -5.9015 C.ar    
  19 C19            2.1677     2.6404    -6.3609 C.3     
  20 C20            2.4703     2.7770    -7.8720 C.3     
  21 C21            3.4527     0.9729    -4.7560 C.ar    
  22 C22            5.3757     0.9196    -6.7446 C.ar    
  23 N23            4.1222    -0.9375    -1.4236 N.am    
  24 C24            4.8827    -0.0820    -2.1356 C.2     
  25 C25            4.3160    -1.9979    -3.4420 C.ar    
  26 C26            4.1046    -3.0099    -4.3515 C.ar    
  27 C27            3.3479    -4.1128    -3.9977 C.ar    
  28 C28            2.8040    -4.1961    -2.7288 C.ar    
  29 C29            3.0127    -3.1849    -1.8143 C.ar    
  30 C30            3.7738    -2.0713    -2.1615 C.ar    
  31 O31            5.3322     0.9781    -1.7548 O.2     
  32 O32           -3.6604     2.1475     0.0310 O.3     
  33 H33           -0.9251    -0.5579     0.0083 H       
  34 H34            1.2238    -1.7546    -0.0187 H       
  35 H35            3.3152     1.9637    -0.0182 H       
  36 H36            1.1764     3.1786     0.0075 H       
  37 H37           -0.4882     3.9952     0.0261 H       
  38 H38           -2.1682     3.9763     0.0339 H       
  39 H39            4.4676    -0.1107     0.4727 H       
  40 H40            3.5950    -1.6621     0.4727 H       
  41 H41            6.8583    -1.9260    -3.6008 H       
  42 H42            7.1699    -0.1831    -3.3045 H       
  43 H43            1.1916     2.1833    -6.1988 H       
  44 H44            2.2313     3.6073    -5.8618 H       
  45 H45            2.2453     3.7847    -8.2213 H       
  46 H46            1.9146     2.0352    -8.4456 H       
  47 H47            2.7010     0.9939    -3.9808 H       
  48 H48            6.1259     0.8985    -7.5212 H       
  49 H49            4.5301    -2.9428    -5.3419 H       
  50 H50            3.1821    -4.9067    -4.7108 H       
  51 H51            2.2133    -5.0570    -2.4527 H       
  52 H52            2.5840    -3.2566    -0.8257 H       
  53 H53           -4.4362     1.5703     0.0316 H       
@<TRIPOS>BOND
   1    1    2 ar
   2    1    6 ar
   3    1    7 1
   4    2    3 ar
   5    2   33 1
   6    3    4 ar
   7    3   34 1
   8    4    5 ar
   9    4   10 1
  10    5    6 ar
  11    5   35 1
  12    6   36 1
  13    7    8 2
  14    7    9 1
  15    8   32 1
  16    9   37 1
  17    9   38 1
  18   10   23 1
  19   10   39 1
  20   10   40 1
  21   11   12 1
  22   11   15 1
  23   12   13 ar
  24   12   22 ar
  25   13   14 1
  26   13   21 ar
  27   14   15 1
  28   14   24 1
  29   14   25 1
  30   15   41 1
  31   15   42 1
  32   16   17 1
  33   16   20 1
  34   17   18 ar
  35   17   22 ar
  36   18   19 1
  37   18   21 ar
  38   19   20 1
  39   19   43 1
  40   19   44 1
  41   20   45 1
  42   20   46 1
  43   21   47 1
  44   22   48 1
  45   23   24 am
  46   23   30 1
  47   24   31 2
  48   25   26 ar
  49   25   30 ar
  50   26   27 ar
  51   26   49 1
  52   27   28 ar
  53   27   50 1
  54   28   29 ar
  55   28   51 1
  56   29   30 ar
  57   29   52 1
  58   32   53 1

#	End of record

