#	Name: ASD01028264
#	Creating user name:	WinNT
#	Creation time:	15. 06. 2019 18:56

#	Modifying user name:	WinNT
#	Modification time:	15. 06. 2019 18:56

#	Program:	/corina/corina34_cracker 3.40 0067  02.08.2006

@<TRIPOS>MOLECULE
ASD01028264
  61   65    0    0    0
SMALL
NO_CHARGES


@<TRIPOS>ATOM
   1 C1            -0.0166     1.3719     0.0096 C.ar    
   2 C2             0.0021    -0.0041     0.0020 C.ar    
   3 C3             1.1750     2.1035     0.0021 C.ar    
   4 C4             2.3797     1.4715    -0.0128 C.ar    
   5 C5             2.4326     0.0695    -0.0208 C.ar    
   6 C6             1.2322    -0.6815    -0.0134 C.ar    
   7 C7             3.6676    -0.6170    -0.0367 C.ar    
   8 C8             3.6411    -2.0003    -0.0444 C.ar    
   9 C9             2.4221    -2.6660    -0.0364 C.ar    
  10 N10            1.2804    -2.0188    -0.0211 N.ar    
  11 O11            4.8427     0.0593    -0.0447 O.3     
  12 C12            6.0400    -0.7207    -0.0607 C.3     
  13 C13            7.2364     0.1957    -0.0676 C.2     
  14 N14            7.8866     0.6794     1.0265 N.pl3   
  15 C15            8.9041     1.4649     0.5421 C.2     
  16 N16            8.8256     1.4220    -0.7777 N.2     
  17 N17            7.8435     0.6672    -1.1257 N.2     
  18 C18            7.7079     0.5260     2.3676 C.2     
  19 C19            8.5373     1.1506     3.2489 C.2     
  20 C20            9.5930     1.9658     2.7743 C.2     
  21 C21            9.7741     2.1191     1.4378 C.2     
  22 C22            8.3342     0.9771     4.7071 C.ar    
  23 O23           -1.2065     2.0271     0.0188 O.3     
  24 C24           -1.1606     3.4553     0.0263 C.3     
  25 C25            9.3049     0.3305     5.4739 C.ar    
  26 C26            9.1192     0.1674     6.8272 C.ar    
  27 C27            7.9572     0.6494     7.4364 C.ar    
  28 C28            6.9836     1.2985     6.6674 C.ar    
  29 C29            7.1763     1.4650     5.3116 C.ar    
  30 F30            5.8593     1.7655     7.2532 F       
  31 C31            7.7566     0.4742     8.8874 C.2     
  32 N32            8.6942    -0.1510     9.6266 N.am    
  33 C33            8.4950    -0.3251    11.0675 C.3     
  34 O34            6.7454     0.8939     9.4164 O.2     
  35 C35            9.6977    -1.0595    11.6636 C.3     
  36 O36           10.8639    -0.2432    11.5390 O.3     
  37 C37           12.0499    -0.8394    12.0680 C.3     
  38 H38           -0.9239    -0.5598     0.0082 H       
  39 H39            1.1387     3.1829     0.0079 H       
  40 H40            3.2932     2.0476    -0.0188 H       
  41 H41            4.5646    -2.5602    -0.0569 H       
  42 H42            2.4134    -3.7460    -0.0425 H       
  43 H43            6.0728    -1.3543     0.8256 H       
  44 H44            6.0552    -1.3447    -0.9543 H       
  45 H45            6.9035    -0.0943     2.7345 H       
  46 H46           10.2511     2.4625     3.4718 H       
  47 H47           10.5761     2.7383     1.0640 H       
  48 H48           -2.1761     3.8514     0.0333 H       
  49 H49           -0.6312     3.7971     0.9157 H       
  50 H50           -0.6396     3.8068    -0.8642 H       
  51 H51           10.2029    -0.0427     5.0040 H       
  52 H52            9.8712    -0.3335     7.4189 H       
  53 H53            6.4266     1.9657     4.7170 H       
  54 H54            9.5009    -0.4859     9.2045 H       
  55 H55            8.3946     0.6516    11.5410 H       
  56 H56            7.5906    -0.9080    11.2415 H       
  57 H57            9.5107    -1.2676    12.7170 H       
  58 H58            9.8518    -1.9972    11.1297 H       
  59 H59           11.9118    -1.0430    13.1298 H       
  60 H60           12.2529    -1.7726    11.5425 H       
  61 H61           12.8898    -0.1575    11.9350 H       
@<TRIPOS>BOND
   1    1    2 ar
   2    1    3 ar
   3    1   23 1
   4    2    6 ar
   5    2   38 1
   6    3    4 ar
   7    3   39 1
   8    4    5 ar
   9    4   40 1
  10    5    6 ar
  11    5    7 ar
  12    6   10 ar
  13    7    8 ar
  14    7   11 1
  15    8    9 ar
  16    8   41 1
  17    9   10 ar
  18    9   42 1
  19   11   12 1
  20   12   13 1
  21   12   43 1
  22   12   44 1
  23   13   14 1
  24   13   17 2
  25   14   15 1
  26   14   18 1
  27   15   16 2
  28   15   21 1
  29   16   17 1
  30   18   19 2
  31   18   45 1
  32   19   20 1
  33   19   22 1
  34   20   21 2
  35   20   46 1
  36   21   47 1
  37   22   25 ar
  38   22   29 ar
  39   23   24 1
  40   24   48 1
  41   24   49 1
  42   24   50 1
  43   25   26 ar
  44   25   51 1
  45   26   27 ar
  46   26   52 1
  47   27   28 ar
  48   27   31 1
  49   28   29 ar
  50   28   30 1
  51   29   53 1
  52   31   32 am
  53   31   34 2
  54   32   33 1
  55   32   54 1
  56   33   35 1
  57   33   55 1
  58   33   56 1
  59   35   36 1
  60   35   57 1
  61   35   58 1
  62   36   37 1
  63   37   59 1
  64   37   60 1
  65   37   61 1

#	End of record

