#	Name: ASD04880172
#	Creating user name:	WinNT
#	Creation time:	15. 06. 2019 20:52

#	Modifying user name:	WinNT
#	Modification time:	15. 06. 2019 20:52

#	Program:	/corina/corina34_cracker 3.40 0067  02.08.2006

@<TRIPOS>MOLECULE
ASD04880172
  40   42    0    0    0
SMALL
NO_CHARGES


@<TRIPOS>ATOM
   1 C1            -0.0144     1.2114     0.0087 C.2     
   2 O2             0.0686    -0.0012    -0.0108 O.2     
   3 C3             1.2138     2.0381    -0.0176 C.ar    
   4 C4             2.4789     1.4487     0.0724 C.ar    
   5 C5             3.5981     2.2578     0.0439 C.ar    
   6 N6             3.4847     3.5665    -0.0660 N.ar    
   7 C7             2.3120     4.1623    -0.1534 C.ar    
   8 C8             1.1412     3.4295    -0.1388 C.ar    
   9 N9            -1.2245     1.8036     0.0486 N.am    
  10 N10           -1.4534     3.1713     0.1840 N.2     
  11 C11           -2.7001     3.4977     0.1963 C.2     
  12 C12           -3.5490     2.2544     0.0555 C.3     
  13 C13           -2.5195     1.1118    -0.0499 C.3     
  14 C14           -3.2186     4.8712     0.3281 C.ar    
  15 C15           -2.3333     5.9451     0.4525 C.ar    
  16 C16           -2.8249     7.2311     0.5759 C.ar    
  17 C17           -4.2001     7.4542     0.5765 C.ar    
  18 C18           -5.0795     6.3882     0.4530 C.ar    
  19 C19           -4.5965     5.1032     0.3232 C.ar    
  20 O20           -4.6816     8.7195     0.6988 O.3     
  21 C21           -6.1019     8.8767     0.6919 C.3     
  22 O22           -1.9661     8.2786     0.6972 O.3     
  23 C23           -0.5694     7.9767     0.6894 C.3     
  24 H24            2.5793     0.3772     0.1630 H       
  25 H25            4.5794     1.8121     0.1131 H       
  26 H26            2.2662     5.2377    -0.2418 H       
  27 H27            0.1841     3.9239    -0.2154 H       
  28 H28           -4.1830     2.1230     0.9323 H       
  29 H29           -4.1531     2.3045    -0.8504 H       
  30 H30           -2.6088     0.5996    -1.0080 H       
  31 H31           -2.6430     0.4095     0.7745 H       
  32 H32           -1.2674     5.7708     0.4527 H       
  33 H33           -6.1448     6.5657     0.4543 H       
  34 H34           -5.2832     4.2757     0.2227 H       
  35 H35           -6.3511     9.9327     0.7965 H       
  36 H36           -6.5046     8.4997    -0.2482 H       
  37 H37           -6.5334     8.3176     1.5221 H       
  38 H38           -0.3372     7.3099     1.5198 H       
  39 H39           -0.3079     7.4909    -0.2507 H       
  40 H40            0.0022     8.8989     0.7932 H       
@<TRIPOS>BOND
   1    1    2 2
   2    1    3 1
   3    1    9 am
   4    3    4 ar
   5    3    8 ar
   6    4    5 ar
   7    4   24 1
   8    5    6 ar
   9    5   25 1
  10    6    7 ar
  11    7    8 ar
  12    7   26 1
  13    8   27 1
  14    9   10 1
  15    9   13 1
  16   10   11 2
  17   11   12 1
  18   11   14 1
  19   12   13 1
  20   12   28 1
  21   12   29 1
  22   13   30 1
  23   13   31 1
  24   14   15 ar
  25   14   19 ar
  26   15   16 ar
  27   15   32 1
  28   16   17 ar
  29   16   22 1
  30   17   18 ar
  31   17   20 1
  32   18   19 ar
  33   18   33 1
  34   19   34 1
  35   20   21 1
  36   21   35 1
  37   21   36 1
  38   21   37 1
  39   22   23 1
  40   23   38 1
  41   23   39 1
  42   23   40 1

#	End of record

