#	Name: ASD00431278
#	Creating user name:	WinNT
#	Creation time:	15. 06. 2019 18:35

#	Modifying user name:	WinNT
#	Modification time:	15. 06. 2019 18:35

#	Program:	/corina/corina34_cracker 3.40 0067  02.08.2006

@<TRIPOS>MOLECULE
ASD00431278
  37   38    0    0    0
SMALL
NO_CHARGES


@<TRIPOS>ATOM
   1 C1            -4.4198    -7.6339    -1.0536 C.2     
   2 C2            -3.2280    -6.7652    -1.0167 C.ar    
   3 C3            -2.7094    -6.3393     0.2086 C.ar    
   4 C4            -1.5963    -5.5281     0.2387 C.ar    
   5 C5            -0.9895    -5.1335    -0.9474 C.ar    
   6 C6            -1.5025    -5.5545    -2.1682 C.ar    
   7 C7            -2.6116    -6.3709    -2.2068 C.ar    
   8 O8             0.1074    -4.3339    -0.9134 O.3     
   9 C9             1.3025    -4.9027    -0.6024 C.ar    
  10 C10            1.3811    -6.2679    -0.3686 C.ar    
  11 C11            2.5953    -6.8456    -0.0531 C.ar    
  12 C12            3.7360    -6.0609     0.0304 C.ar    
  13 C13            3.6574    -4.6958    -0.2028 C.ar    
  14 C14            2.4444    -4.1188    -0.5244 C.ar    
  15 O15            4.9312    -6.6297     0.3415 O.3     
  16 C16            4.9240    -8.0237     0.6556 C.3     
  17 C17            4.9897    -8.8383    -0.6378 C.3     
  18 C18            6.1352    -8.3558     1.5295 C.3     
  19 N19           -4.8987    -8.0273    -2.1895 N.2     
  20 O20           -6.0427    -8.8611    -2.2249 O.3     
  21 H21           -4.8899    -7.9451    -0.1325 H       
  22 H22           -3.1806    -6.6453     1.1309 H       
  23 H23           -1.1949    -5.1981     1.1855 H       
  24 H24           -1.0284    -5.2450    -3.0879 H       
  25 H25           -3.0066    -6.7019    -3.1559 H       
  26 H26            0.4928    -6.8788    -0.4330 H       
  27 H27            2.6565    -7.9084     0.1289 H       
  28 H28            4.5455    -4.0848    -0.1374 H       
  29 H29            2.3841    -3.0567    -0.7108 H       
  30 H30            4.0089    -8.2701     1.1941 H       
  31 H31            4.9842    -9.9017    -0.3982 H       
  32 H32            4.1268    -8.6017    -1.2604 H       
  33 H33            5.9048    -8.5919    -1.1763 H       
  34 H34            6.0884    -7.7755     2.4510 H       
  35 H35            6.1297    -9.4191     1.7691 H       
  36 H36            7.0503    -8.1094     0.9910 H       
  37 H37           -6.3259    -9.1026    -3.1174 H       
@<TRIPOS>BOND
   1    1    2 1
   2    1   19 2
   3    1   21 1
   4    2    3 ar
   5    2    7 ar
   6    3    4 ar
   7    3   22 1
   8    4    5 ar
   9    4   23 1
  10    5    6 ar
  11    5    8 1
  12    6    7 ar
  13    6   24 1
  14    7   25 1
  15    8    9 1
  16    9   10 ar
  17    9   14 ar
  18   10   11 ar
  19   10   26 1
  20   11   12 ar
  21   11   27 1
  22   12   13 ar
  23   12   15 1
  24   13   14 ar
  25   13   28 1
  26   14   29 1
  27   15   16 1
  28   16   17 1
  29   16   18 1
  30   16   30 1
  31   17   31 1
  32   17   32 1
  33   17   33 1
  34   18   34 1
  35   18   35 1
  36   18   36 1
  37   19   20 1
  38   20   37 1

#	End of record

