#	Name: ASD01230869
#	Creating user name:	WinNT
#	Creation time:	15. 06. 2019 19:15

#	Modifying user name:	WinNT
#	Modification time:	15. 06. 2019 19:15

#	Program:	/corina/corina34_cracker 3.40 0067  02.08.2006

@<TRIPOS>MOLECULE
ASD01230869
  29   31    0    0    0
SMALL
NO_CHARGES


@<TRIPOS>ATOM
   1 C1            -0.0169     1.3983     0.0097 C.ar    
   2 C2             0.0021    -0.0041     0.0020 C.ar    
   3 C3             1.2328    -0.6605    -0.0133 C.ar    
   4 C4             2.3882     0.1053    -0.0203 C.ar    
   5 C5             2.2901     1.4832    -0.0119 C.ar    
   6 N6             1.1147     2.0835     0.0026 N.ar    
   7 N7            -1.2305     2.0713     0.0191 N.pl3   
   8 C8            -1.4570    -1.7865    -0.9130 C.ar    
   9 C9            -1.2639    -0.7754     0.0105 C.ar    
  10 C10           -2.2569    -0.4736     0.9566 C.ar    
  11 C11           -3.4251    -1.1657     0.9856 C.ar    
  12 C12           -3.6526    -2.1998     0.0602 C.ar    
  13 C13           -4.8525    -2.9309     0.0699 C.ar    
  14 C14           -5.0433    -3.9265    -0.8385 C.ar    
  15 C15           -4.0648    -4.2350    -1.7818 C.ar    
  16 C16           -2.8902    -3.5492    -1.8221 C.ar    
  17 C17           -2.6570    -2.5133    -0.8998 C.ar    
  18 H18            1.2842    -1.7393    -0.0192 H       
  19 H19            3.3573    -0.3714    -0.0318 H       
  20 H20            3.1905     2.0795    -0.0174 H       
  21 H21           -2.0621     1.5720     0.0204 H       
  22 H22           -1.2472     3.0412     0.0245 H       
  23 H23           -0.6921    -2.0118    -1.6414 H       
  24 H24           -2.0892     0.3191     1.6708 H       
  25 H25           -4.1791    -0.9221     1.7195 H       
  26 H26           -5.6199    -2.7041     0.7952 H       
  27 H27           -5.9669    -4.4862    -0.8278 H       
  28 H28           -4.2413    -5.0303    -2.4909 H       
  29 H29           -2.1406    -3.7992    -2.5583 H       
@<TRIPOS>BOND
   1    1    2 ar
   2    1    6 ar
   3    1    7 1
   4    2    3 ar
   5    2    9 1
   6    3    4 ar
   7    3   18 1
   8    4    5 ar
   9    4   19 1
  10    5    6 ar
  11    5   20 1
  12    7   21 1
  13    7   22 1
  14    8    9 ar
  15    8   17 ar
  16    8   23 1
  17    9   10 ar
  18   10   11 ar
  19   10   24 1
  20   11   12 ar
  21   11   25 1
  22   12   13 ar
  23   12   17 ar
  24   13   14 ar
  25   13   26 1
  26   14   15 ar
  27   14   27 1
  28   15   16 ar
  29   15   28 1
  30   16   17 ar
  31   16   29 1

#	End of record

