#	Name: ASD01140550
#	Creating user name:	WinNT
#	Creation time:	15. 06. 2019 19:01

#	Modifying user name:	WinNT
#	Modification time:	15. 06. 2019 19:01

#	Program:	/corina/corina34_cracker 3.40 0067  02.08.2006

@<TRIPOS>MOLECULE
ASD01140550
  35   37    0    0    0
SMALL
NO_CHARGES


@<TRIPOS>ATOM
   1 O1            -0.0173     1.4232     0.0099 O.3     
   2 O2             0.9649    -1.9339     1.1172 O.3     
   3 O3             3.2915    -0.5765     1.0967 O.2     
   4 O4             4.6932     1.5746     0.8837 O.3     
   5 O5            -4.4273     0.3356     2.0238 O.3     
   6 O6            -3.4771    -3.3076    -0.8946 O.3     
   7 O7             2.4567     5.3686    -0.8948 O.3     
   8 O8            -5.2357    -1.9625     0.7416 O.3     
   9 C9             0.0021    -0.0041     0.0020 C.3     
  10 C10            0.9022    -0.5065     1.1403 C.3     
  11 C11           -1.3974    -0.5271     0.1993 C.ar    
  12 C12            2.2852     0.0756     0.9090 C.2     
  13 C13            2.3428     1.4670     0.4476 C.ar    
  14 C14            1.1614     2.0891     0.0022 C.ar    
  15 C15           -1.7975    -1.6844    -0.4420 C.ar    
  16 C16           -2.2756     0.1486     1.0257 C.ar    
  17 C17            3.5567     2.1715     0.4465 C.ar    
  18 C18            1.2130     3.3967    -0.4464 C.ar    
  19 C19           -3.5641    -0.3296     1.2103 C.ar    
  20 C20           -3.0842    -2.1692    -0.2628 C.ar    
  21 C21            3.5853     3.4794    -0.0043 C.ar    
  22 C22            2.4186     4.0872    -0.4507 C.ar    
  23 C23           -3.9720    -1.4899     0.5631 C.ar    
  24 H24            0.3916    -0.3573    -0.9527 H       
  25 H25            0.5113    -0.1678     2.0997 H       
  26 H26           -1.1072    -2.2115    -1.0839 H       
  27 H27           -1.9578     1.0500     1.5285 H       
  28 H28            0.3134     3.8822    -0.7946 H       
  29 H29            1.5188    -2.3146     1.8124 H       
  30 H30            4.5155     4.0280    -0.0094 H       
  31 H31            5.1880     1.1158     0.1911 H       
  32 H32           -4.9539     1.0091     1.5719 H       
  33 H33           -3.3145    -4.1149    -0.3877 H       
  34 H34            2.3054     6.0288    -0.2046 H       
  35 H35           -5.8778    -1.6183     0.1058 H       
@<TRIPOS>BOND
   1    1    9 1
   2    1   14 1
   3    2   29 1
   4    2   10 1
   5    3   12 2
   6    4   17 1
   7    4   31 1
   8    5   19 1
   9    5   32 1
  10    6   20 1
  11    6   33 1
  12    7   22 1
  13    7   34 1
  14    8   23 1
  15    8   35 1
  16    9   10 1
  17    9   11 1
  18    9   24 1
  19   10   12 1
  20   10   25 1
  21   11   15 ar
  22   11   16 ar
  23   12   13 1
  24   13   14 ar
  25   13   17 ar
  26   14   18 ar
  27   15   20 ar
  28   15   26 1
  29   16   19 ar
  30   16   27 1
  31   17   21 ar
  32   18   22 ar
  33   18   28 1
  34   19   23 ar
  35   20   23 ar
  36   21   22 ar
  37   21   30 1

#	End of record

