#	Name: ASD01880546
#	Creating user name:	WinNT
#	Creation time:	15. 06. 2019 19:40

#	Modifying user name:	WinNT
#	Modification time:	15. 06. 2019 19:40

#	Program:	/corina/corina34_cracker 3.40 0067  02.08.2006

@<TRIPOS>MOLECULE
ASD01880546
  40   42    0    0    0
SMALL
NO_CHARGES


@<TRIPOS>ATOM
   1 N1            -0.0158     1.3132     0.0093 N.ar    
   2 C2             0.0021    -0.0041     0.0020 C.ar    
   3 N3             1.1308    -0.6841    -0.0124 N.ar    
   4 C4             2.3027    -0.0624    -0.0203 C.ar    
   5 C5             2.3322     1.3204    -0.0131 C.ar    
   6 C6             1.1185     2.0083     0.0022 C.ar    
   7 C7             3.6423     2.0652    -0.0211 C.3     
   8 O8             4.0440     2.3078    -1.3709 O.3     
   9 C9             5.2120     2.9737    -1.5558 C.ar    
  10 C10            5.6619     3.2431    -2.8447 C.ar    
  11 C11            6.8433     3.9172    -3.0304 C.ar    
  12 C12            7.5997     4.3360    -1.9308 C.ar    
  13 C13            7.1430     4.0632    -0.6384 C.ar    
  14 C14            5.9547     3.3910    -0.4577 C.ar    
  15 C15            7.5979     4.3593    -4.2594 C.3     
  16 N16            8.8044     5.0406    -3.7763 N.am    
  17 C17            8.8014     5.0249    -2.4324 C.2     
  18 O18            9.6671     5.5106    -1.7304 O.2     
  19 Cl19           3.7806    -0.9730    -0.0387 Cl      
  20 N20            1.0948     3.3937     0.0098 N.pl3   
  21 C21           10.5732     7.7263    -5.7824 C.3     
  22 C22            9.4898     7.1013    -4.9013 C.3     
  23 C23            9.8418     5.6391    -4.6201 C.3     
  24 H24           -0.9346    -0.5417     0.0084 H       
  25 H25            3.5230     3.0157     0.4989 H       
  26 H26            4.4026     1.4683     0.4826 H       
  27 H27            5.0827     2.9221    -3.6978 H       
  28 H28            7.7195     4.3819     0.2175 H       
  29 H29            5.6021     3.1808     0.5412 H       
  30 H30            7.8725     3.4936    -4.8621 H       
  31 H31            6.9887     5.0470    -4.8460 H       
  32 H32            1.9264     3.8930     0.0046 H       
  33 H33            0.2467     3.8643     0.0205 H       
  34 H34           10.3224     8.7679    -5.9828 H       
  35 H35           11.5332     7.6760    -5.2687 H       
  36 H36           10.6358     7.1801    -6.7237 H       
  37 H37            9.4272     7.6474    -3.9600 H       
  38 H38            8.5298     7.1515    -5.4150 H       
  39 H39           10.8018     5.5888    -4.1063 H       
  40 H40            9.9044     5.0930    -5.5613 H       
@<TRIPOS>BOND
   1    1    2 ar
   2    1    6 ar
   3    2    3 ar
   4    2   24 1
   5    3    4 ar
   6    4    5 ar
   7    4   19 1
   8    5    6 ar
   9    5    7 1
  10    6   20 1
  11    7    8 1
  12    7   25 1
  13    7   26 1
  14    8    9 1
  15    9   10 ar
  16    9   14 ar
  17   10   11 ar
  18   10   27 1
  19   11   12 ar
  20   11   15 1
  21   12   13 ar
  22   12   17 1
  23   13   14 ar
  24   13   28 1
  25   14   29 1
  26   15   16 1
  27   15   30 1
  28   15   31 1
  29   16   17 am
  30   16   23 1
  31   17   18 2
  32   20   32 1
  33   20   33 1
  34   21   22 1
  35   21   34 1
  36   21   35 1
  37   21   36 1
  38   22   23 1
  39   22   37 1
  40   22   38 1
  41   23   39 1
  42   23   40 1

#	End of record

