#	Name: ASD01910612
#	Creating user name:	WinNT
#	Creation time:	15. 06. 2019 19:56

#	Modifying user name:	WinNT
#	Modification time:	15. 06. 2019 19:56

#	Program:	/corina/corina34_cracker 3.40 0067  02.08.2006

@<TRIPOS>MOLECULE
ASD01910612
  39   42    0    0    0
SMALL
NO_CHARGES


@<TRIPOS>ATOM
   1 C1             0.8508     1.6624     0.2186 C.2     
   2 C2             0.7208     0.1938     0.1946 C.2     
   3 N3             1.7059    -0.6860     0.1163 N.2     
   4 C4             1.1138    -1.8901     0.1266 C.2     
   5 N5            -0.1698    -1.6976     0.2084 N.2     
   6 O6            -0.4200    -0.5118     0.2538 O.3     
   7 C7             1.8105    -3.2245     0.0562 C.3     
   8 C8             1.4839    -4.0381     1.3106 C.3     
   9 C9             2.2172    -5.3802     1.2554 C.3     
  10 C10            1.7408    -6.1678     0.0308 C.3     
  11 N11            1.9178    -5.3339    -1.1658 N.am    
  12 C12            1.3295    -3.9876    -1.1820 C.3     
  13 C13            2.6065    -5.7952    -2.2285 C.2     
  14 C14            2.6663    -4.9996    -3.4719 C.ar    
  15 O15            3.1786    -6.8659    -2.1639 O.2     
  16 C16            3.8582    -4.8944    -4.1893 C.ar    
  17 N17            3.9130    -4.1856    -5.2978 N.ar    
  18 C18            2.8553    -3.5518    -5.7730 C.ar    
  19 C19            1.6337    -3.6080    -5.1173 C.ar    
  20 C20            1.5251    -4.3432    -3.9527 C.ar    
  21 F21            2.9651    -2.8376    -6.9145 F       
  22 N22            2.0223     2.2879     0.1612 N.2     
  23 C23            1.9742     3.5742     0.1916 C.2     
  24 S24            0.3556     4.1085     0.3007 S.3     
  25 C25           -0.2101     2.4951     0.2951 C.2     
  26 H26            2.8876    -3.0697    -0.0069 H       
  27 H27            1.8030    -3.4860     2.1947 H       
  28 H28            0.4092    -4.2131     1.3603 H       
  29 H29            3.2905    -5.2056     1.1808 H       
  30 H30            2.0028    -5.9494     2.1600 H       
  31 H31            2.3297    -7.0796    -0.0689 H       
  32 H32            0.6872    -6.4216     0.1468 H       
  33 H33            0.2423    -4.0637    -1.1649 H       
  34 H34            1.6470    -3.4610    -2.0820 H       
  35 H35            4.7440    -5.3986    -3.8322 H       
  36 H36            0.7761    -3.0859    -5.5151 H       
  37 H37            0.5864    -4.4045    -3.4221 H       
  38 H38            2.8361     4.2240     0.1540 H       
  39 H39           -1.2452     2.1915     0.3491 H       
@<TRIPOS>BOND
   1    1    2 1
   2    1   22 1
   3    1   25 2
   4    2    3 2
   5    2    6 1
   6    3    4 1
   7    4    5 2
   8    4    7 1
   9    5    6 1
  10    7    8 1
  11    7   12 1
  12    7   26 1
  13    8    9 1
  14    8   27 1
  15    8   28 1
  16    9   10 1
  17    9   29 1
  18    9   30 1
  19   10   11 1
  20   10   31 1
  21   10   32 1
  22   11   12 1
  23   11   13 am
  24   12   33 1
  25   12   34 1
  26   13   14 1
  27   13   15 2
  28   14   16 ar
  29   14   20 ar
  30   16   17 ar
  31   16   35 1
  32   17   18 ar
  33   18   19 ar
  34   18   21 1
  35   19   20 ar
  36   19   36 1
  37   20   37 1
  38   22   23 2
  39   23   24 1
  40   23   38 1
  41   24   25 1
  42   25   39 1

#	End of record

