#	Name: ASD01885390
#	Creating user name:	WinNT
#	Creation time:	15. 06. 2019 19:49

#	Modifying user name:	WinNT
#	Modification time:	15. 06. 2019 19:49

#	Program:	/corina/corina34_cracker 3.40 0067  02.08.2006

@<TRIPOS>MOLECULE
ASD01885390
  31   33    0    0    0
SMALL
NO_CHARGES


@<TRIPOS>ATOM
   1 C1            -0.0169     1.3920     0.0097 C.ar    
   2 C2             0.0021    -0.0041     0.0020 C.ar    
   3 N3            -1.1141    -0.7730     0.0202 N.2     
   4 C4            -2.1909    -0.5678    -0.6467 C.2     
   5 C5            -2.3525     0.6329    -1.5416 C.3     
   6 C6            -2.2799     1.8711    -0.6842 C.2     
   7 N7            -1.1827     2.1468     0.0191 N.am    
   8 C8             1.1872     2.0916     0.0020 C.ar    
   9 C9             2.4015     1.4087    -0.0188 C.ar    
  10 C10            2.4113     0.0099    -0.0319 C.ar    
  11 C11            1.2376    -0.6790    -0.0216 C.ar    
  12 C12           -3.2993    -1.5323    -0.5336 C.ar    
  13 C13           -3.1953    -2.6659     0.2881 C.ar    
  14 C14           -4.2787    -3.5252     0.3418 C.ar    
  15 N15           -5.3624    -3.2659    -0.3652 N.ar    
  16 N16           -5.4655    -2.2327    -1.1182 N.ar    
  17 C17           -4.4964    -1.3474    -1.2379 C.ar    
  18 O18           -3.2293     2.6244    -0.6361 O.2     
  19 C19            3.6723     2.1582    -0.0273 C.2     
  20 O20            3.6612     3.3730    -0.0163 O.2     
  21 O21            4.8453     1.4953    -0.0474 O.3     
  22 H22           -1.5525     0.6505    -2.2817 H       
  23 H23           -3.3187     0.5897    -2.0443 H       
  24 H24           -1.1997     2.9346     0.5849 H       
  25 H25            1.1797     3.1715     0.0117 H       
  26 H26            3.3502    -0.5233    -0.0503 H       
  27 H27            1.2541    -1.7589    -0.0318 H       
  28 H28           -2.2996    -2.8610     0.8590 H       
  29 H29           -4.2373    -4.4083     0.9622 H       
  30 H30           -4.6208    -0.4895    -1.8820 H       
  31 H31            5.6514     2.0294    -0.0523 H       
@<TRIPOS>BOND
   1    1    2 ar
   2    1    8 ar
   3    1    7 1
   4    2    3 1
   5    2   11 ar
   6    3    4 2
   7    4    5 1
   8    4   12 1
   9    5    6 1
  10    5   22 1
  11    5   23 1
  12    6    7 am
  13    6   18 2
  14    7   24 1
  15    8    9 ar
  16    8   25 1
  17    9   10 ar
  18    9   19 1
  19   10   11 ar
  20   10   26 1
  21   11   27 1
  22   12   13 ar
  23   12   17 ar
  24   13   14 ar
  25   13   28 1
  26   14   15 ar
  27   14   29 1
  28   15   16 ar
  29   16   17 ar
  30   17   30 1
  31   19   20 2
  32   19   21 1
  33   21   31 1

#	End of record

