#	Name: ASD03330018
#	Creating user name:	WinNT
#	Creation time:	15. 06. 2019 20:36

#	Modifying user name:	WinNT
#	Modification time:	15. 06. 2019 20:36

#	Program:	/corina/corina34_cracker 3.40 0067  02.08.2006

@<TRIPOS>MOLECULE
ASD03330018
  56   59    0    0    0
SMALL
NO_CHARGES


@<TRIPOS>ATOM
   1 C1            -0.0276     1.4203     0.0945 C.ar    
   2 C2             0.0063     0.0312     0.0848 C.ar    
   3 C3            -1.1598    -0.6998     0.0615 C.ar    
   4 C4            -2.3906    -0.0472     0.0478 C.ar    
   5 C5            -2.4236     1.3592     0.0581 C.ar    
   6 C6            -1.2333     2.0862     0.0870 C.ar    
   7 N7            -3.6886    -0.5013     0.0250 N.pl3   
   8 C8            -4.5610     0.5466     0.0200 C.2     
   9 C9            -3.8451     1.7361     0.0398 C.2     
  10 C10           -6.0335     0.4341    -0.0032 C.2     
  11 O11           -6.7209     1.4320     0.0938 O.2     
  12 N12           -6.6151    -0.7749    -0.1319 N.am    
  13 C13           -8.0757    -0.8864    -0.1549 C.3     
  14 C14           -8.4726    -2.3560    -0.3089 C.3     
  15 C15           -9.9751    -2.4707    -0.3326 C.ar    
  16 C16          -10.6534    -2.4008    -1.5356 C.ar    
  17 C17          -12.0302    -2.5056    -1.5609 C.ar    
  18 C18          -12.7337    -2.6813    -0.3760 C.ar    
  19 C19          -12.0491    -2.7511     0.8307 C.ar    
  20 C20          -10.6718    -2.6512     0.8482 C.ar    
  21 N21          -14.1262    -2.7872    -0.3979 N.3     
  22 Cl22           1.4565     2.3206     0.1234 Cl      
  23 C23          -14.6617    -2.9673     0.9575 C.3     
  24 C24          -16.1910    -2.9335     0.9120 C.3     
  25 C25          -16.6942    -4.0491    -0.0082 C.3     
  26 C26          -16.0838    -3.8659    -1.4004 C.3     
  27 C27          -14.5576    -3.8727    -1.2878 C.3     
  28 C28           -4.3957     3.0952     0.0421 C.2     
  29 O29           -4.5471     3.6901    -1.0043 O.2     
  30 C30           -4.7735     3.7529     1.3443 C.3     
  31 H31            0.9575    -0.4803     0.0954 H       
  32 H32           -1.1206    -1.7791     0.0534 H       
  33 H33           -1.2570     3.1659     0.0950 H       
  34 H34           -3.9472    -1.4361     0.0134 H       
  35 H35           -6.0666    -1.5712    -0.2093 H       
  36 H36           -8.4847    -0.4953     0.7767 H       
  37 H37           -8.4707    -0.3135    -0.9939 H       
  38 H38           -8.0636    -2.7471    -1.2405 H       
  39 H39           -8.0776    -2.9288     0.5301 H       
  40 H40          -10.1059    -2.2638    -2.4564 H       
  41 H41          -12.5594    -2.4506    -2.5007 H       
  42 H42          -12.5931    -2.8877     1.7537 H       
  43 H43          -10.1389    -2.7058     1.7860 H       
  44 H44          -14.3313    -3.9275     1.3539 H       
  45 H45          -14.2996    -2.1652     1.6006 H       
  46 H46          -16.5884    -3.0828     1.9159 H       
  47 H47          -16.5224    -1.9684     0.5287 H       
  48 H48          -16.3962    -5.0166     0.3958 H       
  49 H49          -17.7809    -4.0015    -0.0778 H       
  50 H50          -16.4045    -4.6814    -2.0486 H       
  51 H51          -16.4134    -2.9155    -1.8201 H       
  52 H52          -14.1199    -3.7282    -2.2756 H       
  53 H53          -14.2277    -4.8286    -0.8810 H       
  54 H54           -3.8931     4.2223     1.7832 H       
  55 H55           -5.5357     4.5103     1.1611 H       
  56 H56           -5.1651     3.0020     2.0305 H       
@<TRIPOS>BOND
   1    1    2 ar
   2    1   22 1
   3    1    6 ar
   4    2    3 ar
   5    2   31 1
   6    3    4 ar
   7    3   32 1
   8    4    5 ar
   9    4    7 1
  10    5    6 ar
  11    5    9 1
  12    6   33 1
  13    7    8 1
  14    7   34 1
  15    8    9 2
  16    8   10 1
  17    9   28 1
  18   10   11 2
  19   10   12 am
  20   12   13 1
  21   12   35 1
  22   13   14 1
  23   13   36 1
  24   13   37 1
  25   14   15 1
  26   14   38 1
  27   14   39 1
  28   15   16 ar
  29   15   20 ar
  30   16   17 ar
  31   16   40 1
  32   17   18 ar
  33   17   41 1
  34   18   19 ar
  35   18   21 1
  36   19   20 ar
  37   19   42 1
  38   20   43 1
  39   21   23 1
  40   21   27 1
  41   23   24 1
  42   23   44 1
  43   23   45 1
  44   24   25 1
  45   24   46 1
  46   24   47 1
  47   25   26 1
  48   25   48 1
  49   25   49 1
  50   26   27 1
  51   26   50 1
  52   26   51 1
  53   27   52 1
  54   27   53 1
  55   28   29 2
  56   28   30 1
  57   30   54 1
  58   30   55 1
  59   30   56 1

#	End of record

