#	Name: ASD01420357
#	Creating user name:	WinNT
#	Creation time:	15. 06. 2019 19:20

#	Modifying user name:	WinNT
#	Modification time:	15. 06. 2019 19:20

#	Program:	/corina/corina34_cracker 3.40 0067  02.08.2006

@<TRIPOS>MOLECULE
ASD01420357
  82   87    0    0    0
SMALL
NO_CHARGES


@<TRIPOS>ATOM
   1 C1            -0.0144     1.2120     0.0087 C.2     
   2 O2             0.2381     0.1776     0.5964 O.2     
   3 C3             0.7522     2.9845    -1.6009 C.3     
   4 N4             0.9294     1.8036    -0.7501 N.am    
   5 C5             2.3297     1.3893    -0.8825 C.3     
   6 C6             3.0027     2.3457    -1.8345 C.ar    
   7 C7             4.3048     2.4028    -2.2978 C.ar    
   8 C8             4.6832     3.4000    -3.1863 C.ar    
   9 C9             3.7506     4.3393    -3.6081 C.ar    
  10 C10            2.4530     4.2771    -3.1424 C.ar    
  11 C11            2.0778     3.2811    -2.2559 C.ar    
  12 N12            5.9979     3.4591    -3.6544 N.3     
  13 C13            6.1773     4.5868    -4.5794 C.3     
  14 C14            7.6450     4.6643    -5.0064 C.3     
  15 N15            8.0350     3.3982    -5.6423 N.3     
  16 C16            7.8555     2.2704    -4.7173 C.3     
  17 C17            6.3878     2.1929    -4.2903 C.3     
  18 C18            9.4176     3.4603    -6.1347 C.3     
  19 C19           -1.3540     1.8151     0.1213 C.ar    
  20 C20           -2.4987     1.0051     0.0473 C.ar    
  21 C21           -3.7577     1.5723     0.1527 C.ar    
  22 C22           -3.8929     2.9389     0.3312 C.ar    
  23 C23           -2.7538     3.7559     0.4066 C.ar    
  24 C24           -1.4875     3.1916     0.3073 C.ar    
  25 C25           -2.9007     5.2135     0.5966 C.2     
  26 C26           -3.2903     5.9781    -0.4146 C.2     
  27 C27           -2.6079     5.8316     1.9395 C.3     
  28 O28           -5.1286     3.4892     0.4328 O.3     
  29 C29           -6.2439     2.6000     0.3470 C.3     
  30 C30           -7.5235     3.3849     0.4799 C.ar    
  31 C31           -8.1403     3.8969    -0.6463 C.ar    
  32 C32           -9.3140     4.6169    -0.5244 C.ar    
  33 C33           -9.8712     4.8245     0.7235 C.ar    
  34 C34           -9.2549     4.3116     1.8496 C.ar    
  35 C35           -8.0834     3.5880     1.7273 C.ar    
  36 O36           -2.3712    -0.3338    -0.1279 O.3     
  37 C37           -3.5774    -1.0971    -0.1942 C.3     
  38 C38           -3.2405    -2.5529    -0.3899 C.ar    
  39 C39           -3.0548    -3.3729     0.7073 C.ar    
  40 C40           -2.7457    -4.7083     0.5278 C.ar    
  41 C41           -2.6227    -5.2237    -0.7490 C.ar    
  42 C42           -2.8092    -4.4038    -1.8462 C.ar    
  43 C43           -3.1226    -3.0695    -1.6667 C.ar    
  44 H44            0.0007     2.7808    -2.3637 H       
  45 H45            0.4420     3.8345    -0.9932 H       
  46 H46            2.8204     1.4295     0.0900 H       
  47 H47            2.3790     0.3758    -1.2806 H       
  48 H48            5.0276     1.6714    -1.9677 H       
  49 H49            4.0406     5.1171    -4.2990 H       
  50 H50            1.7279     5.0074    -3.4699 H       
  51 H51            5.5501     4.4394    -5.4586 H       
  52 H52            5.8940     5.5142    -4.0815 H       
  53 H53            7.7749     5.4823    -5.7150 H       
  54 H54            8.2699     4.8389    -4.1305 H       
  55 H55            8.1389     1.3431    -5.2152 H       
  56 H56            8.4827     2.4178    -3.8381 H       
  57 H57            6.2580     1.3749    -3.5817 H       
  58 H58            5.7630     2.0183    -5.1662 H       
  59 H59           10.0919     3.6547    -5.3006 H       
  60 H60            9.6804     2.5106    -6.6006 H       
  61 H61            9.5065     4.2617    -6.8681 H       
  62 H62           -4.6365     0.9471     0.0951 H       
  63 H63           -0.6094     3.8173     0.3696 H       
  64 H64           -3.3977     7.0437    -0.2757 H       
  65 H65           -3.5001     5.5351    -1.3769 H       
  66 H66           -2.3040     5.0532     2.6393 H       
  67 H67           -1.8046     6.5612     1.8363 H       
  68 H68           -3.5033     6.3277     2.3141 H       
  69 H69           -6.2288     2.0901    -0.6162 H       
  70 H70           -6.1842     1.8640     1.1488 H       
  71 H71           -7.7050     3.7348    -1.6213 H       
  72 H72           -9.7956     5.0176    -1.4042 H       
  73 H73          -10.7878     5.3876     0.8188 H       
  74 H74           -9.6900     4.4741     2.8246 H       
  75 H75           -7.6039     3.1841     2.6067 H       
  76 H76           -4.1362    -0.9751     0.7337 H       
  77 H77           -4.1824    -0.7485    -1.0312 H       
  78 H78           -3.1509    -2.9703     1.7048 H       
  79 H79           -2.5999    -5.3488     1.3851 H       
  80 H80           -2.3805    -6.2668    -0.8892 H       
  81 H81           -2.7128    -4.8064    -2.8437 H       
  82 H82           -3.2720    -2.4298    -2.5240 H       
@<TRIPOS>BOND
   1    1    2 2
   2    1    4 am
   3    1   19 1
   4    3    4 1
   5    3   11 1
   6    3   44 1
   7    3   45 1
   8    4    5 1
   9    5    6 1
  10    5   46 1
  11    5   47 1
  12    6    7 ar
  13    6   11 ar
  14    7    8 ar
  15    7   48 1
  16    8    9 ar
  17    8   12 1
  18    9   10 ar
  19    9   49 1
  20   10   11 ar
  21   10   50 1
  22   12   13 1
  23   12   17 1
  24   13   14 1
  25   13   51 1
  26   13   52 1
  27   14   15 1
  28   14   53 1
  29   14   54 1
  30   15   16 1
  31   15   18 1
  32   16   17 1
  33   16   55 1
  34   16   56 1
  35   17   57 1
  36   17   58 1
  37   18   59 1
  38   18   60 1
  39   18   61 1
  40   19   20 ar
  41   19   24 ar
  42   20   21 ar
  43   20   36 1
  44   21   22 ar
  45   21   62 1
  46   22   23 ar
  47   22   28 1
  48   23   24 ar
  49   23   25 1
  50   24   63 1
  51   25   26 2
  52   25   27 1
  53   26   64 1
  54   26   65 1
  55   27   66 1
  56   27   67 1
  57   27   68 1
  58   28   29 1
  59   29   30 1
  60   29   69 1
  61   29   70 1
  62   30   31 ar
  63   30   35 ar
  64   31   32 ar
  65   31   71 1
  66   32   33 ar
  67   32   72 1
  68   33   34 ar
  69   33   73 1
  70   34   35 ar
  71   34   74 1
  72   35   75 1
  73   36   37 1
  74   37   38 1
  75   37   76 1
  76   37   77 1
  77   38   39 ar
  78   38   43 ar
  79   39   40 ar
  80   39   78 1
  81   40   41 ar
  82   40   79 1
  83   41   42 ar
  84   41   80 1
  85   42   43 ar
  86   42   81 1
  87   43   82 1

#	End of record

