#	Name: ASD05730020
#	Creating user name:	WinNT
#	Creation time:	15. 06. 2019 21:02

#	Modifying user name:	WinNT
#	Modification time:	15. 06. 2019 21:02

#	Program:	/corina/corina34_cracker 3.40 0067  02.08.2006

@<TRIPOS>MOLECULE
ASD05730020
  55   59    0    0    0
SMALL
NO_CHARGES


@<TRIPOS>ATOM
   1 N1            -0.0592     1.0601     1.0705 N.ar    
   2 C2            -0.0391    -0.1733     0.5793 C.ar    
   3 N3             1.0537    -0.9212     0.5780 N.ar    
   4 C4             2.1886    -0.4515     1.0779 C.ar    
   5 C5             2.2056     0.8572     1.6090 C.ar    
   6 C6             1.0252     1.6081     1.5881 C.ar    
   7 N7             3.3363    -1.2023     1.0910 N.am    
   8 C8             4.4786    -0.7104     1.6028 C.2     
   9 C9             4.5506     0.5921     2.1470 C.2     
  10 C10            3.4508     1.3864     2.1626 C.2     
  11 C11           -1.2897    -0.7356     0.0104 C.2     
  12 C12           -2.5548     0.0062     0.1376 C.ar    
  13 C13           -3.6988    -0.4371    -0.5364 C.ar    
  14 C14           -4.8799     0.2578    -0.4154 C.ar    
  15 C15           -4.9394     1.4015     0.3763 C.ar    
  16 C16           -3.8017     1.8478     1.0498 C.ar    
  17 C17           -2.6181     1.1542     0.9379 C.ar    
  18 N18           -6.1350     2.1007     0.4958 N.3     
  19 O19            5.4784    -1.4066     1.5977 O.2     
  20 C20            3.3175    -2.5595     0.5399 C.3     
  21 C21           -5.9532     3.3218     1.2910 C.3     
  22 C22            4.2284    -2.6339    -0.7009 C.3     
  23 C23            5.2655    -3.7269    -0.3453 C.3     
  24 C24            4.5366    -4.5145     0.7731 C.3     
  25 O25            3.8368    -3.4871     1.5074 O.3     
  26 F26           -3.8634     2.9582     1.8168 F       
  27 O27           -1.2690    -1.8083    -0.5603 O.2     
  28 C28           -7.1881     1.2492     1.0635 C.3     
  29 C29           -8.5201     2.0026     1.0453 C.3     
  30 C30           -8.3836     3.2906     1.8620 C.3     
  31 C31           -7.2483     4.1370     1.2796 C.3     
  32 O32           -9.6072     4.0263     1.8016 O.3     
  33 H33            1.0014     2.6120     1.9858 H       
  34 H34            5.4839     0.9563     2.5505 H       
  35 H35            3.4936     2.3835     2.5754 H       
  36 H36           -3.6542    -1.3239    -1.1513 H       
  37 H37           -5.7624    -0.0841    -0.9357 H       
  38 H38           -1.7375     1.4995     1.4591 H       
  39 H39            2.2985    -2.8352     0.2686 H       
  40 H40           -5.7023     3.0530     2.3171 H       
  41 H41           -5.1459     3.9166     0.8637 H       
  42 H42            3.6531    -2.9254    -1.5796 H       
  43 H43            4.7241    -1.6776    -0.8682 H       
  44 H44            5.4662    -4.3670    -1.2044 H       
  45 H45            6.1869    -3.2815     0.0299 H       
  46 H46            3.8322    -5.2271     0.3440 H       
  47 H47            5.2555    -5.0233     1.4153 H       
  48 H48           -7.2778     0.3387     0.4710 H       
  49 H49           -6.9314     0.9902     2.0907 H       
  50 H50           -8.7843     2.2499     0.0172 H       
  51 H51           -9.2985     1.3762     1.4811 H       
  52 H52           -8.1577     3.0422     2.8990 H       
  53 H53           -7.1181     5.0356     1.8827 H       
  54 H54           -7.4925     4.4179     0.2551 H       
  55 H55           -9.5922     4.8559     2.2981 H       
@<TRIPOS>BOND
   1    1    2 ar
   2    1    6 ar
   3    2    3 ar
   4    2   11 1
   5    3    4 ar
   6    4    5 ar
   7    4    7 1
   8    5    6 ar
   9    5   10 1
  10    6   33 1
  11    7    8 am
  12    7   20 1
  13    8    9 1
  14    8   19 2
  15    9   10 2
  16    9   34 1
  17   10   35 1
  18   11   12 1
  19   11   27 2
  20   12   13 ar
  21   12   17 ar
  22   13   14 ar
  23   13   36 1
  24   14   15 ar
  25   14   37 1
  26   15   16 ar
  27   15   18 1
  28   16   17 ar
  29   16   26 1
  30   17   38 1
  31   18   28 1
  32   18   21 1
  33   20   22 1
  34   20   25 1
  35   20   39 1
  36   21   31 1
  37   21   40 1
  38   21   41 1
  39   22   23 1
  40   22   42 1
  41   22   43 1
  42   23   24 1
  43   23   44 1
  44   23   45 1
  45   24   25 1
  46   24   46 1
  47   24   47 1
  48   28   29 1
  49   28   48 1
  50   28   49 1
  51   29   30 1
  52   29   50 1
  53   29   51 1
  54   30   31 1
  55   30   32 1
  56   30   52 1
  57   31   53 1
  58   31   54 1
  59   32   55 1

#	End of record

