#	Name: ASD01209271
#	Creating user name:	WinNT
#	Creation time:	15. 06. 2019 19:11

#	Modifying user name:	WinNT
#	Modification time:	15. 06. 2019 19:11

#	Program:	/corina/corina34_cracker 3.40 0067  02.08.2006

@<TRIPOS>MOLECULE
ASD01209271
  74   76    0    0    0
SMALL
NO_CHARGES


@<TRIPOS>ATOM
   1 C1             0.0012     1.3908    -0.0966 C.ar    
   2 C2             0.0512    -0.0033    -0.0659 C.ar    
   3 C3            -1.1226    -0.7350     0.0071 C.ar    
   4 C4             1.2514     2.1760    -0.1745 C.2     
   5 O5             1.2059     3.3905    -0.2011 O.2     
   6 N6             2.4418     1.5452    -0.2160 N.am    
   7 C7             3.6265     2.2891    -0.2898 C.2     
   8 P8             7.7270     2.6811    -2.2148 P.3     
   9 O9             7.0234     1.5669    -2.8886 O.2     
  10 O10            9.3162     2.4336    -2.2862 O.3     
  11 C11           10.0159     2.2176    -3.5134 C.3     
  12 C12           11.5048     2.0177    -3.2232 C.3     
  13 O13            7.3660     4.0669    -2.9506 O.3     
  14 C14            7.5568     4.2772    -4.3511 C.3     
  15 C15            7.1143     5.6949    -4.7188 C.3     
  16 N16            4.8429     1.7989    -0.3363 N.2     
  17 N17            5.7431     2.8700    -0.4041 N.pl3   
  18 C18            5.0305     4.0163    -0.3969 C.2     
  19 C19            3.7198     3.6896    -0.3330 C.2     
  20 C20           -1.2323     2.0416    -0.0593 C.ar    
  21 C21           -2.4018     1.3020     0.0079 C.ar    
  22 C22           -2.3472    -0.0834     0.0493 C.ar    
  23 O23           -3.6038     1.9351     0.0447 O.3     
  24 C24           -4.7717     1.1136    -0.0110 C.3     
  25 C25           -5.9403     1.9257    -0.5730 C.3     
  26 O26           -6.2645     2.9829     0.3321 O.3     
  27 C27           -7.3492     3.8064    -0.1007 C.3     
  28 C28           -5.1199     0.6261     1.3969 C.3     
  29 O29           -1.0751    -2.0928     0.0370 O.3     
  30 C30           -0.5383    -2.6883     1.1341 C.ar    
  31 C31           -0.1746    -1.9226     2.2327 C.ar    
  32 C32            0.3705    -2.5305     3.3469 C.ar    
  33 C33            0.5538    -3.9008     3.3681 C.ar    
  34 C34            0.1923    -4.6662     2.2748 C.ar    
  35 C35           -0.3581    -4.0639     1.1601 C.ar    
  36 S36            1.2499    -4.6731     4.7907 S.o2    
  37 O37            1.8503    -5.8586     4.2875 O.2     
  38 O38            2.0347    -3.6536     5.3941 O.2     
  39 C39           -0.1797    -5.0761     5.8321 C.3     
  40 C40            7.2027     2.7645    -0.4708 C.3     
  41 H41            1.0038    -0.5111    -0.0994 H       
  42 H42            2.4781     0.5761    -0.1947 H       
  43 H43            9.6194     1.3300    -4.0063 H       
  44 H44            9.8854     3.0830    -4.1631 H       
  45 H45           11.9012     2.9053    -2.7302 H       
  46 H46           11.6353     1.1524    -2.5734 H       
  47 H47           12.0384     1.8530    -4.1592 H       
  48 H48            8.6110     4.1503    -4.5973 H       
  49 H49            6.9633     3.5545    -4.9111 H       
  50 H50            6.0600     5.8218    -4.4727 H       
  51 H51            7.7077     6.4175    -4.1588 H       
  52 H52            7.2598     5.8553    -5.7871 H       
  53 H53            5.4351     5.0168    -0.4392 H       
  54 H54            2.8920     4.3829    -0.3113 H       
  55 H55           -1.2754     3.1205    -0.0825 H       
  56 H56           -3.2608    -0.6569     0.1014 H       
  57 H57           -4.5821     0.2556    -0.6560 H       
  58 H58           -5.6590     2.3471    -1.5381 H       
  59 H59           -6.8068     1.2765    -0.6987 H       
  60 H60           -7.0971     4.2668    -1.0560 H       
  61 H61           -8.2449     3.1962    -0.2166 H       
  62 H62           -7.5329     4.5844     0.6403 H       
  63 H63           -6.0107    -0.0006     1.3545 H       
  64 H64           -4.2874     0.0475     1.7973 H       
  65 H65           -5.3096     1.4841     2.0419 H       
  66 H66           -0.3173    -0.8521     2.2164 H       
  67 H67            0.6540    -1.9349     4.2020 H       
  68 H68            0.3369    -5.7363     2.2938 H       
  69 H69           -0.6403    -4.6621     0.3063 H       
  70 H70           -0.8463    -5.7469     5.2901 H       
  71 H71            0.1619    -5.5631     6.7454 H       
  72 H72           -0.7137    -4.1605     6.0863 H       
  73 H73            7.5260     1.8628     0.0493 H       
  74 H74            7.6521     3.6377     0.0023 H       
@<TRIPOS>BOND
   1    1    2 ar
   2    1    4 1
   3    1   20 ar
   4    2    3 ar
   5    2   41 1
   6    3   29 1
   7    3   22 ar
   8    4    5 2
   9    4    6 am
  10    6    7 1
  11    6   42 1
  12    7   16 2
  13    7   19 1
  14    8    9 2
  15    8   10 1
  16    8   13 1
  17    8   40 1
  18   10   11 1
  19   11   12 1
  20   11   43 1
  21   11   44 1
  22   12   45 1
  23   12   46 1
  24   12   47 1
  25   13   14 1
  26   14   15 1
  27   14   48 1
  28   14   49 1
  29   15   50 1
  30   15   51 1
  31   15   52 1
  32   16   17 1
  33   17   18 1
  34   17   40 1
  35   18   19 2
  36   18   53 1
  37   19   54 1
  38   20   21 ar
  39   20   55 1
  40   21   22 ar
  41   21   23 1
  42   22   56 1
  43   23   24 1
  44   24   25 1
  45   24   28 1
  46   24   57 1
  47   25   26 1
  48   25   58 1
  49   25   59 1
  50   26   27 1
  51   27   60 1
  52   27   61 1
  53   27   62 1
  54   28   63 1
  55   28   64 1
  56   28   65 1
  57   29   30 1
  58   30   31 ar
  59   30   35 ar
  60   31   32 ar
  61   31   66 1
  62   32   33 ar
  63   32   67 1
  64   33   34 ar
  65   33   36 1
  66   34   35 ar
  67   34   68 1
  68   35   69 1
  69   36   37 2
  70   36   38 2
  71   36   39 1
  72   39   70 1
  73   39   71 1
  74   39   72 1
  75   40   73 1
  76   40   74 1

#	End of record

