#	Name: ASD02500795
#	Creating user name:	WinNT
#	Creation time:	15. 06. 2019 20:23

#	Modifying user name:	WinNT
#	Modification time:	15. 06. 2019 20:23

#	Program:	/corina/corina34_cracker 3.40 0067  02.08.2006

@<TRIPOS>MOLECULE
ASD02500795
  48   51    0    0    0
SMALL
NO_CHARGES


@<TRIPOS>ATOM
   1 N1            -0.0179     1.4654     0.0101 N.am    
   2 C2             0.0021    -0.0041     0.0020 C.3     
   3 C3             0.8261    -0.4764    -1.2022 C.3     
   4 N4             2.1040     0.2493    -1.2105 N.am    
   5 C5             2.0841     1.7188    -1.2024 C.3     
   6 C6             1.2601     2.1912     0.0018 C.3     
   7 S7             3.5407    -0.5740    -1.2281 S.o2    
   8 O8             4.5153     0.3081    -0.6883 O.2     
   9 O9             3.2726    -1.8605    -0.6876 O.2     
  10 C10            3.9775    -0.8248    -2.9166 C.ar    
  11 C11            4.7440     0.1155    -3.5789 C.ar    
  12 C12            5.0873    -0.0820    -4.9054 C.ar    
  13 C13            4.6623    -1.2218    -5.5672 C.ar    
  14 C14            3.8962    -2.1605    -4.9030 C.ar    
  15 C15            3.5583    -1.9646    -3.5766 C.ar    
  16 F16            5.8361     0.8366    -5.5540 F       
  17 S17           -1.4546     2.2888     0.0214 S.o2    
  18 O18           -1.1840     3.5755    -0.5173 O.2     
  19 O19           -2.4267     1.4070    -0.5232 O.2     
  20 O20           -2.9591     3.1084     5.6604 O.3     
  21 C21           -2.6024     2.9304     4.3590 C.ar    
  22 C22           -1.8259     3.8756     3.6985 C.ar    
  23 O23           -1.4003     4.9983     4.3395 O.3     
  24 C24           -2.0797     5.3437     5.5516 C.3     
  25 C25           -2.2116     4.0755     6.4060 C.3     
  26 C26           -1.4776     3.6762     2.3712 C.ar    
  27 C27           -1.8991     2.5390     1.7080 C.ar    
  28 C28           -2.6690     1.5981     2.3653 C.ar    
  29 C29           -3.0212     1.7916     3.6880 C.ar    
  30 H30            0.4576    -0.3688     0.9227 H       
  31 H31           -1.0165    -0.3833    -0.0803 H       
  32 H32            1.0139    -1.5469    -1.1197 H       
  33 H33            0.2810    -0.2679    -2.1228 H       
  34 H34            3.1027     2.0980    -1.1201 H       
  35 H35            1.6286     2.0836    -2.1231 H       
  36 H36            1.0723     3.2617    -0.0807 H       
  37 H37            1.8051     1.9827     0.9224 H       
  38 H38            5.0746     1.0042    -3.0619 H       
  39 H39            4.9293    -1.3768    -6.6021 H       
  40 H40            3.5646    -3.0495    -5.4189 H       
  41 H41            2.9632    -2.7010    -3.0570 H       
  42 H42           -1.5049     6.0943     6.0941 H       
  43 H43           -3.0700     5.7353     5.3192 H       
  44 H44           -2.7350     4.3096     7.3330 H       
  45 H45           -1.2214     3.6799     6.6322 H       
  46 H46           -0.8763     4.4101     1.8552 H       
  47 H47           -2.9964     0.7103     1.8447 H       
  48 H48           -3.6229     1.0548     4.1994 H       
@<TRIPOS>BOND
   1    1    2 1
   2    1    6 1
   3    1   17 am
   4    2    3 1
   5    2   30 1
   6    2   31 1
   7    3    4 1
   8    3   32 1
   9    3   33 1
  10    4    5 1
  11    4    7 am
  12    5    6 1
  13    5   34 1
  14    5   35 1
  15    6   36 1
  16    6   37 1
  17    7    8 2
  18    7    9 2
  19    7   10 1
  20   10   11 ar
  21   10   15 ar
  22   11   12 ar
  23   11   38 1
  24   12   13 ar
  25   12   16 1
  26   13   14 ar
  27   13   39 1
  28   14   15 ar
  29   14   40 1
  30   15   41 1
  31   17   18 2
  32   17   19 2
  33   17   27 1
  34   20   21 1
  35   20   25 1
  36   21   22 ar
  37   21   29 ar
  38   22   23 1
  39   22   26 ar
  40   23   24 1
  41   24   25 1
  42   24   42 1
  43   24   43 1
  44   25   44 1
  45   25   45 1
  46   26   27 ar
  47   26   46 1
  48   27   28 ar
  49   28   29 ar
  50   28   47 1
  51   29   48 1

#	End of record

