#	Name: ASD00460038
#	Creating user name:	WinNT
#	Creation time:	15. 06. 2019 18:36

#	Modifying user name:	WinNT
#	Modification time:	15. 06. 2019 18:36

#	Program:	/corina/corina34_cracker 3.40 0067  02.08.2006

@<TRIPOS>MOLECULE
ASD00460038
  43   44    0    0    0
SMALL
NO_CHARGES


@<TRIPOS>ATOM
   1 C1            -0.0173     1.4248     0.0099 C.3     
   2 O2             0.0021    -0.0041     0.0020 O.3     
   3 C3             0.6258    -0.6184     1.0415 C.ar    
   4 C4             1.2072     0.1384     2.0482 C.ar    
   5 C5             1.8407    -0.4885     3.1039 C.ar    
   6 C6             1.8956    -1.8689     3.1574 C.ar    
   7 C7             1.3172    -2.6256     2.1548 C.ar    
   8 C8             0.6773    -2.0037     1.1005 C.ar    
   9 C9             1.3793    -4.1300     2.2161 C.3     
  10 N10            1.1702    -4.5727     3.6011 N.3     
  11 C11            0.6410    -5.9425     3.6417 C.3     
  12 C12            0.4369    -6.3674     5.0973 C.3     
  13 C13           -0.1142    -7.7941     5.1396 C.3     
  14 C14           -0.3153    -8.2126     6.5733 C.ar    
  15 C15           -1.5242    -7.9740     7.1999 C.ar    
  16 C16           -1.7086    -8.3579     8.5150 C.ar    
  17 C17           -0.6843    -8.9807     9.2034 C.ar    
  18 C18            0.5243    -9.2200     8.5765 C.ar    
  19 C19            0.7072    -8.8401     7.2601 C.ar    
  20 C20            2.7506    -4.6041     1.7306 C.3     
  21 H21            1.0053     1.8021     0.0021 H       
  22 H22           -0.5445     1.7859    -0.8732 H       
  23 H23           -0.5275     1.7763     0.9067 H       
  24 H24            1.1649     1.2168     2.0066 H       
  25 H25            2.2938     0.1002     3.8877 H       
  26 H26            2.3913    -2.3570     3.9834 H       
  27 H27            0.2253    -2.5951     0.3179 H       
  28 H28            0.6023    -4.5520     1.5785 H       
  29 H29            2.0218    -4.4981     4.1370 H       
  30 H30           -0.3127    -5.9793     3.1153 H       
  31 H31            1.3476    -6.6194     3.1613 H       
  32 H32            1.3907    -6.3306     5.6237 H       
  33 H33           -0.2696    -5.6906     5.5777 H       
  34 H34           -1.0680    -7.8309     4.6132 H       
  35 H35            0.5923    -8.4709     4.6592 H       
  36 H36           -2.3244    -7.4875     6.6621 H       
  37 H37           -2.6528    -8.1709     9.0048 H       
  38 H38           -0.8281    -9.2799    10.2311 H       
  39 H39            1.3246    -9.7063     9.1145 H       
  40 H40            1.6514    -9.0271     6.7703 H       
  41 H41            3.5275    -4.1821     2.3681 H       
  42 H42            2.7955    -5.6922     1.7749 H       
  43 H43            2.9057    -4.2756     0.7029 H       
@<TRIPOS>BOND
   1    1    2 1
   2    1   21 1
   3    1   22 1
   4    1   23 1
   5    2    3 1
   6    3    4 ar
   7    3    8 ar
   8    4    5 ar
   9    4   24 1
  10    5    6 ar
  11    5   25 1
  12    6    7 ar
  13    6   26 1
  14    7    8 ar
  15    7    9 1
  16    8   27 1
  17    9   10 1
  18    9   20 1
  19    9   28 1
  20   10   11 1
  21   10   29 1
  22   11   12 1
  23   11   30 1
  24   11   31 1
  25   12   13 1
  26   12   32 1
  27   12   33 1
  28   13   14 1
  29   13   34 1
  30   13   35 1
  31   14   15 ar
  32   14   19 ar
  33   15   16 ar
  34   15   36 1
  35   16   17 ar
  36   16   37 1
  37   17   18 ar
  38   17   38 1
  39   18   19 ar
  40   18   39 1
  41   19   40 1
  42   20   41 1
  43   20   42 1
  44   20   43 1

#	End of record

