#	Name: ASD03930175
#	Creating user name:	WinNT
#	Creation time:	15. 06. 2019 20:47

#	Modifying user name:	WinNT
#	Modification time:	15. 06. 2019 20:47

#	Program:	/corina/corina34_cracker 3.40 0067  02.08.2006

@<TRIPOS>MOLECULE
ASD03930175
  24   25    0    0    0
SMALL
NO_CHARGES


@<TRIPOS>ATOM
   1 C1            -0.0168     1.3874     0.0097 C.ar    
   2 C2             0.0021    -0.0041     0.0020 C.ar    
   3 C3             1.2209    -0.6784    -0.0132 C.ar    
   4 C4             2.4155     0.0456    -0.0208 C.ar    
   5 C5             2.3887     1.4261    -0.0126 C.ar    
   6 C6             1.1826     2.0989     0.0020 C.ar    
   7 O7             2.3509    -2.9346    -0.0356 O.3     
   8 C8             1.2501    -2.1567    -0.0210 C.2     
   9 N9             0.2092    -2.9558    -0.0144 N.2     
  10 N10            0.6123    -4.1776    -0.0242 N.2     
  11 C11            1.9158    -4.2063    -0.0373 C.2     
  12 C12            2.7784    -5.4419    -0.0517 C.3     
  13 B13           -1.3863     2.1551     0.0203 Du      
  14 O14           -2.6069     1.4295     0.0221 O.3     
  15 O15           -1.4043     3.5749     0.0281 O.3     
  16 H16           -0.9245    -0.5589     0.0082 H       
  17 H17            3.3616    -0.4752    -0.0326 H       
  18 H18            3.3146     1.9820    -0.0181 H       
  19 H19            1.1684     3.1788     0.0080 H       
  20 H20            2.9966    -5.7447     0.9724 H       
  21 H21            2.2516    -6.2469    -0.5642 H       
  22 H22            3.7110    -5.2278    -0.5739 H       
  23 H23           -3.3964     1.9879     0.0289 H       
  24 H24           -2.2926     3.9570     0.0344 H       
@<TRIPOS>BOND
   1    1    2 ar
   2    1    6 ar
   3    1   13 1
   4    2    3 ar
   5    2   16 1
   6    3    4 ar
   7    3    8 1
   8    4    5 ar
   9    4   17 1
  10    5    6 ar
  11    5   18 1
  12    6   19 1
  13    7    8 1
  14    7   11 1
  15    8    9 2
  16    9   10 1
  17   10   11 2
  18   11   12 1
  19   12   20 1
  20   12   21 1
  21   12   22 1
  22   13   14 1
  23   13   15 1
  24   14   23 1
  25   15   24 1

#	End of record

