#	Name: ASD01870146
#	Creating user name:	WinNT
#	Creation time:	15. 06. 2019 19:38

#	Modifying user name:	WinNT
#	Modification time:	15. 06. 2019 19:38

#	Program:	/corina/corina34_cracker 3.40 0067  02.08.2006

@<TRIPOS>MOLECULE
ASD01870146
  41   44    0    0    0
SMALL
NO_CHARGES


@<TRIPOS>ATOM
   1 C1            -0.1271     1.2475     0.2147 C.ar    
   2 C2            -0.1900    -0.1056    -0.1327 C.ar    
   3 C3             1.0554     1.7759     0.7420 C.ar    
   4 C4             2.1524     0.9629     0.9170 C.ar    
   5 C5             2.0859    -0.3824     0.5697 C.ar    
   6 C6             0.9113    -0.9120     0.0454 C.ar    
   7 N7             3.2021    -1.2042     0.7481 N.am    
   8 C8             3.2332    -2.1998     1.6426 C.2     
   9 C9             4.3263    -1.0643     0.0347 C.2     
  10 C10            5.3293    -2.1076     0.4764 C.3     
  11 C11            4.5806    -2.8854     1.5777 C.3     
  12 O12            4.5111    -0.2336    -0.8286 O.2     
  13 O13            2.3259    -2.5037     2.3869 O.2     
  14 C14            4.9832    -3.5851     0.2817 C.3     
  15 C15            3.8703    -3.9232    -0.7123 C.3     
  16 C16            6.1320    -4.5932     0.3520 C.3     
  17 C17           -1.3031     2.1166     0.0198 C.2     
  18 C18           -1.4413     3.3602     0.8060 C.ar    
  19 O19           -2.1587     1.8097    -0.7877 O.2     
  20 C20           -2.2455     4.4011     0.3367 C.ar    
  21 C21           -2.3699     5.5591     1.0757 C.ar    
  22 C22           -1.7001     5.6908     2.2794 C.ar    
  23 C23           -0.9012     4.6636     2.7502 C.ar    
  24 C24           -0.7727     3.4977     2.0245 C.ar    
  25 H25           -1.1016    -0.5174    -0.5399 H       
  26 H26            1.1080     2.8205     1.0112 H       
  27 H27            3.0660     1.3703     1.3242 H       
  28 H28            0.8636    -1.9570    -0.2231 H       
  29 H29            6.3692    -1.7991     0.5835 H       
  30 H30            5.0547    -3.1637     2.5189 H       
  31 H31            3.3697    -3.0061    -1.0230 H       
  32 H32            4.2996    -4.4162    -1.5846 H       
  33 H33            3.1488    -4.5881    -0.2376 H       
  34 H34            5.8706    -5.3944     1.0432 H       
  35 H35            6.3095    -5.0116    -0.6388 H       
  36 H36            7.0345    -4.0918     0.7016 H       
  37 H37           -2.7685     4.2997    -0.6027 H       
  38 H38           -2.9912     6.3650     0.7138 H       
  39 H39           -1.8011     6.5997     2.8540 H       
  40 H40           -0.3807     4.7733     3.6901 H       
  41 H41           -0.1492     2.6966     2.3932 H       
@<TRIPOS>BOND
   1    1    2 ar
   2    1    3 ar
   3    1   17 1
   4    2    6 ar
   5    2   25 1
   6    3    4 ar
   7    3   26 1
   8    4    5 ar
   9    4   27 1
  10    5    6 ar
  11    5    7 1
  12    6   28 1
  13    7    8 am
  14    7    9 am
  15    8   13 2
  16    8   11 1
  17    9   12 2
  18    9   10 1
  19   10   11 1
  20   10   14 1
  21   10   29 1
  22   11   14 1
  23   11   30 1
  24   14   15 1
  25   14   16 1
  26   15   31 1
  27   15   32 1
  28   15   33 1
  29   16   34 1
  30   16   35 1
  31   16   36 1
  32   17   18 1
  33   17   19 2
  34   18   20 ar
  35   18   24 ar
  36   20   21 ar
  37   20   37 1
  38   21   22 ar
  39   21   38 1
  40   22   23 ar
  41   22   39 1
  42   23   24 ar
  43   23   40 1
  44   24   41 1

#	End of record

