#	Name: ASD04560060
#	Creating user name:	WinNT
#	Creation time:	15. 06. 2019 20:49

#	Modifying user name:	WinNT
#	Modification time:	15. 06. 2019 20:49

#	Program:	/corina/corina34_cracker 3.40 0067  02.08.2006

@<TRIPOS>MOLECULE
ASD04560060
  52   55    0    0    0
SMALL
NO_CHARGES


@<TRIPOS>ATOM
   1 C1            -0.0173     1.3666     0.0244 C.ar    
   2 C2             0.0010    -0.0041     0.0241 C.ar    
   3 C3             1.2157    -0.6859     0.0136 C.ar    
   4 C4             2.4151     0.0225     0.0039 C.ar    
   5 C5             2.4031     1.3933     0.0042 C.ar    
   6 C6             1.1852     2.0805     0.0143 C.ar    
   7 C7             1.1690     3.5549     0.0141 C.2     
   8 O8             2.2154     4.1746     0.0053 O.2     
   9 N9            -0.0055     4.2159     0.0238 N.am    
  10 C10           -0.0226     5.6108     0.1367 C.ar    
  11 C11           -0.9921     6.3504    -0.5279 C.ar    
  12 C12            0.9079     7.6335     1.0278 C.ar    
  13 C13            0.9265     6.2569     0.9179 C.ar    
  14 F14           -0.0727     9.7160     0.4686 F       
  15 S15            1.2351    -2.4478     0.0132 S.3     
  16 C16           -1.0071     7.7268    -0.4152 C.ar    
  17 C17           -0.0563     8.3694     0.3597 C.ar    
  18 C18            3.0069    -2.8364    -0.0020 C.3     
  19 C19            3.1960    -4.3547    -0.0039 C.3     
  20 C20            4.6905    -4.6824    -0.0167 C.3     
  21 N21            4.8716    -6.1362    -0.0184 N.am    
  22 C22            4.9562    -6.8913    -1.1285 C.2     
  23 C23            5.1354    -8.3022    -0.7260 C.ar    
  24 C24            5.1475    -8.3024     0.6838 C.ar    
  25 C25            4.9809    -6.8909     1.0898 C.2     
  26 C26            5.2788    -9.4946    -1.4163 C.ar    
  27 C27            5.4332   -10.6806    -0.7149 C.ar    
  28 C28            5.4446   -10.6809     0.6670 C.ar    
  29 C29            5.3026    -9.4950     1.3713 C.ar    
  30 O30            4.9414    -6.4819     2.2326 O.2     
  31 O31            4.8950    -6.4822    -2.2704 O.2     
  32 N32            5.5865   -11.9554    -1.4513 N.pl3   
  33 O33            5.5767   -11.9601    -2.6693 O.2     
  34 O34            5.7224   -12.9997    -0.8394 O.2     
  35 H35           -0.9594     1.8947     0.0280 H       
  36 H36           -0.9274    -0.5560     0.0322 H       
  37 H37            3.3553    -0.5088    -0.0035 H       
  38 H38            3.3333     1.9420    -0.0029 H       
  39 H39           -0.8390     3.7249    -0.0474 H       
  40 H40           -1.7336     5.8496    -1.1326 H       
  41 H41            1.6459     8.1363     1.6353 H       
  42 H42            1.6784     5.6833     1.4393 H       
  43 H43           -1.7607     8.3024    -0.9321 H       
  44 H44            3.4643    -2.4122    -0.8959 H       
  45 H45            3.4794    -2.4125     0.8840 H       
  46 H46            2.7387    -4.7789     0.8900 H       
  47 H47            2.7235    -4.7786    -0.8899 H       
  48 H48            5.1478    -4.2582    -0.9105 H       
  49 H49            5.1630    -4.2585     0.8694 H       
  50 H50            5.2700    -9.5005    -2.4962 H       
  51 H51            5.5648   -11.6113     1.2021 H       
  52 H52            5.3125    -9.5012     2.4512 H       
@<TRIPOS>BOND
   1    1    2 ar
   2    1    6 ar
   3    1   35 1
   4    2    3 ar
   5    2   36 1
   6    3    4 ar
   7    3   15 1
   8    4    5 ar
   9    4   37 1
  10    5    6 ar
  11    5   38 1
  12    6    7 1
  13    7    8 2
  14    7    9 am
  15    9   10 1
  16    9   39 1
  17   10   11 ar
  18   10   13 ar
  19   11   16 ar
  20   11   40 1
  21   12   13 ar
  22   12   17 ar
  23   12   41 1
  24   13   42 1
  25   14   17 1
  26   15   18 1
  27   16   17 ar
  28   16   43 1
  29   18   19 1
  30   18   44 1
  31   18   45 1
  32   19   20 1
  33   19   46 1
  34   19   47 1
  35   20   21 1
  36   20   48 1
  37   20   49 1
  38   21   22 am
  39   21   25 am
  40   22   23 1
  41   22   31 2
  42   23   24 ar
  43   23   26 ar
  44   24   25 1
  45   24   29 ar
  46   25   30 2
  47   26   27 ar
  48   26   50 1
  49   27   28 ar
  50   27   32 1
  51   28   29 ar
  52   28   51 1
  53   29   52 1
  54   32   33 2
  55   32   34 2

#	End of record

