#	Name: ASD01817058
#	Creating user name:	WinNT
#	Creation time:	15. 06. 2019 19:36

#	Modifying user name:	WinNT
#	Modification time:	15. 06. 2019 19:36

#	Program:	/corina/corina34_cracker 3.40 0067  02.08.2006

@<TRIPOS>MOLECULE
ASD01817058
  44   47    0    0    0
SMALL
NO_CHARGES


@<TRIPOS>ATOM
   1 C1            -0.0167     1.3784     0.0096 C.ar    
   2 C2             0.0021    -0.0041     0.0020 C.ar    
   3 C3             1.2018    -0.6855    -0.0126 C.ar    
   4 C4             2.4050     0.0169    -0.0199 C.ar    
   5 C5             2.3729     1.4060    -0.0126 C.ar    
   6 C6             1.1748     2.0832     0.0020 C.ar    
   7 N7             3.7251    -0.4349    -0.0340 N.am    
   8 C8             4.6091     0.5769    -0.0368 C.2     
   9 C9             3.8130     1.8645    -0.0232 C.3     
  10 C10            4.1037    -1.8501    -0.0441 C.3     
  11 C11            4.2206    -2.3287    -1.4683 C.ar    
  12 C12            5.3651    -2.0520    -2.1978 C.ar    
  13 C13            5.4763    -2.4898    -3.5047 C.ar    
  14 C14            4.4353    -3.2094    -4.0857 C.ar    
  15 C15            3.2868    -3.4843    -3.3464 C.ar    
  16 C16            3.1872    -3.0477    -2.0409 C.ar    
  17 F17            6.3735    -1.3533    -1.6321 F       
  18 C18            4.5487    -3.6817    -5.4887 C.2     
  19 C19            5.6446    -3.4778    -6.3496 C.2     
  20 N20            5.3703    -4.0410    -7.4964 N.2     
  21 N21            4.0990    -4.6219    -7.4139 N.pl3   
  22 C22            3.6126    -4.3974    -6.1766 C.2     
  23 C23            3.4175    -5.3527    -8.4851 C.3     
  24 O24            4.0848     2.6338    -1.1964 O.3     
  25 O25            5.8179     0.4775    -0.0482 O.2     
  26 C26            4.1266     2.6754     1.2357 C.3     
  27 F27            5.4843     3.0128     1.2469 F       
  28 F28            3.3559     3.8430     1.2425 F       
  29 F29            3.8265     1.9120     2.3690 F       
  30 H30           -0.9584     1.9070     0.0169 H       
  31 H31           -0.9276    -0.5537     0.0079 H       
  32 H32            1.2082    -1.7654    -0.0181 H       
  33 H33            1.1642     3.1632     0.0072 H       
  34 H34            5.0619    -1.9735     0.4605 H       
  35 H35            3.3425    -2.4336     0.4739 H       
  36 H36            6.3685    -2.2738    -4.0738 H       
  37 H37            2.4770    -4.0421    -3.7931 H       
  38 H38            2.2969    -3.2609    -1.4679 H       
  39 H39            6.5532    -2.9477    -6.1048 H       
  40 H40            2.6529    -4.7196    -5.8004 H       
  41 H41            3.6703    -6.4111    -8.4209 H       
  42 H42            2.3396    -5.2297    -8.3802 H       
  43 H43            3.7355    -4.9612    -9.4514 H       
  44 H44            5.0093     2.9035    -1.2844 H       
@<TRIPOS>BOND
   1    1    2 ar
   2    1    6 ar
   3    1   30 1
   4    2    3 ar
   5    2   31 1
   6    3    4 ar
   7    3   32 1
   8    4    5 ar
   9    4    7 1
  10    5    6 ar
  11    5    9 1
  12    6   33 1
  13    7    8 am
  14    7   10 1
  15    8    9 1
  16    8   25 2
  17    9   24 1
  18    9   26 1
  19   10   11 1
  20   10   34 1
  21   10   35 1
  22   11   12 ar
  23   11   16 ar
  24   12   13 ar
  25   12   17 1
  26   13   14 ar
  27   13   36 1
  28   14   15 ar
  29   14   18 1
  30   15   16 ar
  31   15   37 1
  32   16   38 1
  33   18   19 1
  34   18   22 2
  35   19   20 2
  36   19   39 1
  37   20   21 1
  38   21   22 1
  39   21   23 1
  40   22   40 1
  41   23   41 1
  42   23   42 1
  43   23   43 1
  44   24   44 1
  45   26   27 1
  46   26   28 1
  47   26   29 1

#	End of record

