#	Name: ASD03090618
#	Creating user name:	WinNT
#	Creation time:	15. 06. 2019 20:29

#	Modifying user name:	WinNT
#	Modification time:	15. 06. 2019 20:29

#	Program:	/corina/corina34_cracker 3.40 0067  02.08.2006

@<TRIPOS>MOLECULE
ASD03090618
  41   42    0    0    0
SMALL
NO_CHARGES


@<TRIPOS>ATOM
   1 N1            -0.0162     1.3436     0.0094 N.am    
   2 C2             0.0193     0.1477     0.6299 C.2     
   3 O3             1.0728    -0.2853     1.0557 O.2     
   4 N4            -1.1128    -0.5683     0.7785 N.am    
   5 S5            -2.4311    -2.8123     1.6752 S.3     
   6 C6            -1.0762    -1.8016     1.4185 C.2     
   7 N7            -0.0098    -2.3532     1.9071 N.2     
   8 C8            -0.1571    -3.5320     2.4830 C.2     
   9 C9            -1.4072    -3.9981     2.4808 C.2     
  10 C10           -1.8637    -5.3098     3.0658 C.3     
  11 C11            1.1453     2.1273    -0.0707 C.ar    
  12 C12            1.0453     3.5107    -0.1992 C.ar    
  13 C13            2.1929     4.2818    -0.2777 C.ar    
  14 C14            3.4395     3.6760    -0.2282 C.ar    
  15 C15            3.5379     2.2977    -0.1006 C.ar    
  16 C16            2.3934     1.5258    -0.0163 C.ar    
  17 O17            4.5664     4.4333    -0.3052 O.3     
  18 C18            4.3914     5.8455    -0.4360 C.3     
  19 C19            5.7605     6.5247    -0.5070 C.3     
  20 O20           -0.1778     4.1032    -0.2481 O.3     
  21 C21           -0.2047     5.5258    -0.3807 C.3     
  22 C22           -1.6565     6.0073    -0.4179 C.3     
  23 Cl23           5.0996     1.5420    -0.0400 Cl      
  24 H24           -0.8435     1.6608    -0.3852 H       
  25 H25           -1.9532    -0.2229     0.4389 H       
  26 H26            0.6675    -4.0748     2.9209 H       
  27 H27           -2.9375    -5.4206     2.9153 H       
  28 H28           -1.3411    -6.1292     2.5722 H       
  29 H29           -1.6426    -5.3282     4.1330 H       
  30 H30            2.1172     5.3545    -0.3777 H       
  31 H31            2.4719     0.4537     0.0878 H       
  32 H32            3.8319     6.0595    -1.3466 H       
  33 H33            3.8419     6.2248     0.4256 H       
  34 H34            6.3199     6.3108     0.4036 H       
  35 H35            6.3100     6.1454    -1.3686 H       
  36 H36            5.6269     7.6019    -0.6068 H       
  37 H37            0.3069     5.9795     0.4682 H       
  38 H38            0.2976     5.8142    -1.3040 H       
  39 H39           -1.6769     7.0924    -0.5190 H       
  40 H40           -2.1680     5.5536    -1.2668 H       
  41 H41           -2.1587     5.7189     0.5055 H       
@<TRIPOS>BOND
   1    1    2 am
   2    1   11 1
   3    1   24 1
   4    2    3 2
   5    2    4 am
   6    4    6 1
   7    4   25 1
   8    5    6 1
   9    5    9 1
  10    6    7 2
  11    7    8 1
  12    8    9 2
  13    8   26 1
  14    9   10 1
  15   10   27 1
  16   10   28 1
  17   10   29 1
  18   11   12 ar
  19   11   16 ar
  20   12   13 ar
  21   12   20 1
  22   13   14 ar
  23   13   30 1
  24   14   15 ar
  25   14   17 1
  26   15   16 ar
  27   15   23 1
  28   16   31 1
  29   17   18 1
  30   18   19 1
  31   18   32 1
  32   18   33 1
  33   19   34 1
  34   19   35 1
  35   19   36 1
  36   20   21 1
  37   21   22 1
  38   21   37 1
  39   21   38 1
  40   22   39 1
  41   22   40 1
  42   22   41 1

#	End of record

