#	Name: ASD01911522
#	Creating user name:	WinNT
#	Creation time:	15. 06. 2019 19:57

#	Modifying user name:	WinNT
#	Modification time:	15. 06. 2019 19:57

#	Program:	/corina/corina34_cracker 3.40 0067  02.08.2006

@<TRIPOS>MOLECULE
ASD01911522
  26   27    0    0    0
SMALL
NO_CHARGES


@<TRIPOS>ATOM
   1 C1            -0.0161     1.3353     0.0094 C.2     
   2 N2             0.0021    -0.0041     0.0020 N.am    
   3 C3             1.3973    -0.4682    -0.0138 C.3     
   4 C4             2.2200     0.8349    -0.0147 C.3     
   5 N5             1.2009     1.8949     0.0008 N.am    
   6 O6            -1.0441     1.9843     0.0179 O.2     
   7 C7             1.7024    -1.2951     1.2368 C.3     
   8 C8             1.6784    -1.2816    -1.2788 C.3     
   9 C9             1.4601     3.2647     0.0057 C.ar    
  10 C10            0.4118     4.1728     0.1261 C.ar    
  11 N11            2.7064     3.7056    -0.0989 N.ar    
  12 N12            0.6609     5.4687     0.1303 N.ar    
  13 C13            1.9050     5.9049     0.0202 C.ar    
  14 C14            2.9489     5.0052    -0.0940 C.ar    
  15 I15            2.2953     7.9632     0.0267 I       
  16 H16           -0.7808    -0.5768     0.0064 H       
  17 H17            2.8458     0.8928     0.8759 H       
  18 H18            2.8287     0.9025    -0.9163 H       
  19 H19            1.0597    -2.1752     1.2563 H       
  20 H20            2.7464    -1.6080     1.2198 H       
  21 H21            1.5186    -0.6912     2.1254 H       
  22 H22            1.4777    -0.6682    -2.1572 H       
  23 H23            2.7225    -1.5945    -1.2851 H       
  24 H24            1.0353    -2.1615    -1.2954 H       
  25 H25           -0.6041     3.8172     0.2155 H       
  26 H26            3.9638     5.3648    -0.1788 H       
@<TRIPOS>BOND
   1    1    2 am
   2    1    5 am
   3    1    6 2
   4    2    3 1
   5    2   16 1
   6    3    4 1
   7    3    7 1
   8    3    8 1
   9    4    5 1
  10    4   17 1
  11    4   18 1
  12    5    9 1
  13    7   19 1
  14    7   20 1
  15    7   21 1
  16    8   22 1
  17    8   23 1
  18    8   24 1
  19    9   10 ar
  20    9   11 ar
  21   10   12 ar
  22   10   25 1
  23   11   14 ar
  24   12   13 ar
  25   13   14 ar
  26   13   15 1
  27   14   26 1

#	End of record

