#	Name: ASD01882830
#	Creating user name:	WinNT
#	Creation time:	15. 06. 2019 19:45

#	Modifying user name:	WinNT
#	Modification time:	15. 06. 2019 19:45

#	Program:	/corina/corina34_cracker 3.40 0067  02.08.2006

@<TRIPOS>MOLECULE
ASD01882830
  48   50    0    0    0
SMALL
NO_CHARGES


@<TRIPOS>ATOM
   1 C1            -0.0167     1.3788     0.0096 C.ar    
   2 C2             0.0021    -0.0041     0.0020 C.ar    
   3 C3             1.2062    -0.6852    -0.0131 C.ar    
   4 C4             2.3972     0.0128    -0.0207 C.ar    
   5 C5             2.3849     1.4075    -0.0131 C.ar    
   6 C6             1.1680     2.0883     0.0021 C.ar    
   7 C7             3.6603     2.1631    -0.0207 C.ar    
   8 I8             1.1372     4.1830     0.0130 I       
   9 I9             4.2194    -1.0207    -0.0429 I       
  10 C10            1.2177    -2.1921    -0.0208 C.3     
  11 S11            1.2057    -2.7881    -1.7341 S.o2    
  12 C12            1.2217    -4.5875    -1.5049 C.3     
  13 O13           -0.0289    -2.4190    -2.3332 O.2     
  14 O14            2.4225    -2.4002    -2.3569 O.2     
  15 C15            3.9913     2.9647    -1.1149 C.ar    
  16 C16            5.1731     3.6633    -1.1180 C.ar    
  17 C17            6.0496     3.5781    -0.0318 C.ar    
  18 C18            5.7159     2.7748     1.0626 C.ar    
  19 C19            4.5288     2.0786     1.0682 C.ar    
  20 C20            5.8175     4.5956    -2.1136 C.3     
  21 N21            7.0905     5.0161    -1.5173 N.am    
  22 C22            7.2211     4.4271    -0.3163 C.2     
  23 C23            8.0598     5.9275    -2.1304 C.3     
  24 C24            8.2524     7.1487    -1.2291 C.3     
  25 C25            9.3980     5.2065    -2.3051 C.3     
  26 C26            6.6532     2.6757     2.2385 C.3     
  27 O27            8.1699     4.5738     0.4295 O.2     
  28 H28           -0.9598     1.9049     0.0169 H       
  29 H29           -0.9271    -0.5545     0.0083 H       
  30 H30            2.1153    -2.5512     0.4825 H       
  31 H31            0.3355    -2.5648     0.4997 H       
  32 H32            0.3394    -4.8898    -0.9407 H       
  33 H33            1.2160    -5.0778    -2.4784 H       
  34 H34            2.1192    -4.8762    -0.9580 H       
  35 H35            3.3191     3.0348    -1.9574 H       
  36 H36            4.2724     1.4584     1.9144 H       
  37 H37            5.9983     4.0735    -3.0532 H       
  38 H38            5.1787     5.4624    -2.2829 H       
  39 H39            7.6906     6.2492    -3.1041 H       
  40 H40            8.6217     6.8270    -0.2553 H       
  41 H41            8.9736     7.8268    -1.6852 H       
  42 H42            7.2991     7.6624    -1.1046 H       
  43 H43            9.2608     4.3365    -2.9472 H       
  44 H44           10.1192     5.8846    -2.7613 H       
  45 H45            9.7672     4.8848    -1.3313 H       
  46 H46            6.4082     3.4507     2.9647 H       
  47 H47            6.5497     1.6956     2.7041 H       
  48 H48            7.6797     2.8092     1.8971 H       
@<TRIPOS>BOND
   1    1    2 ar
   2    1    6 ar
   3    1   28 1
   4    2    3 ar
   5    2   29 1
   6    3    4 ar
   7    3   10 1
   8    4    5 ar
   9    4    9 1
  10    5    6 ar
  11    5    7 1
  12    6    8 1
  13    7   15 ar
  14    7   19 ar
  15   10   11 1
  16   10   30 1
  17   10   31 1
  18   11   12 1
  19   11   13 2
  20   11   14 2
  21   12   32 1
  22   12   33 1
  23   12   34 1
  24   15   16 ar
  25   15   35 1
  26   16   17 ar
  27   16   20 1
  28   17   18 ar
  29   17   22 1
  30   18   19 ar
  31   18   26 1
  32   19   36 1
  33   20   21 1
  34   20   37 1
  35   20   38 1
  36   21   22 am
  37   21   23 1
  38   22   27 2
  39   23   24 1
  40   23   25 1
  41   23   39 1
  42   24   40 1
  43   24   41 1
  44   24   42 1
  45   25   43 1
  46   25   44 1
  47   25   45 1
  48   26   46 1
  49   26   47 1
  50   26   48 1

#	End of record

