#	Name: ASD01840416
#	Creating user name:	WinNT
#	Creation time:	15. 06. 2019 19:37

#	Modifying user name:	WinNT
#	Modification time:	15. 06. 2019 19:37

#	Program:	/corina/corina34_cracker 3.40 0067  02.08.2006

@<TRIPOS>MOLECULE
ASD01840416
  55   58    0    0    0
SMALL
NO_CHARGES


@<TRIPOS>ATOM
   1 C1             0.1807     4.4547    -3.0835 C.ar    
   2 C2            -0.0511     3.2073    -3.6201 C.ar    
   3 N3             0.6503     2.1650    -3.2085 N.ar    
   4 N4             1.5605     2.2555    -2.3121 N.ar    
   5 C5             1.1813     4.5763    -2.0924 C.ar    
   6 C6             1.6376     5.7430    -1.3600 C.2     
   7 C7             1.8705     3.4131    -1.7237 C.ar    
   8 S8             3.0627     3.7862    -0.4868 S.3     
   9 C9             2.6297     5.4846    -0.4723 C.2     
  10 C10           -0.6049     5.6554    -3.5440 C.3     
  11 C11           -1.1082     3.0301    -4.6794 C.3     
  12 N12            1.1061     7.0112    -1.5514 N.pl3   
  13 C13            3.2569     6.4909     0.3833 C.2     
  14 O14            2.8929     7.6513     0.3258 O.2     
  15 N15            4.2380     6.1339     1.2357 N.am    
  16 C16            4.8664     7.1421     2.0929 C.3     
  17 C17            4.0666     7.3296     3.4091 C.3     
  18 C18            5.1417     7.8246     4.3994 C.3     
  19 N19            6.4474     7.3977     3.8755 N.am    
  20 C20            6.2322     6.6433     2.6273 C.3     
  21 C21            7.6431     7.6544     4.4419 C.2     
  22 O22            8.6517     7.1675     3.9764 O.2     
  23 C23            7.7269     8.5464     5.6537 C.3     
  24 C24            7.6766     7.6909     6.9212 C.3     
  25 C25            9.0400     9.3309     5.6196 C.3     
  26 C26            9.1250    10.2365     6.8499 C.3     
  27 C27            9.0748     9.3810     8.1174 C.3     
  28 C28            7.7617     8.5965     8.1514 C.3     
  29 H29           -1.4461     5.8193    -2.8705 H       
  30 H30            0.0397     6.5344    -3.5407 H       
  31 H31           -0.9765     5.4811    -4.5537 H       
  32 H32           -0.6629     3.1710    -5.6642 H       
  33 H33           -1.5271     2.0262    -4.6103 H       
  34 H34           -1.8993     3.7649    -4.5298 H       
  35 H35            0.2549     7.1169    -2.0044 H       
  36 H36            1.5859     7.7914    -1.2323 H       
  37 H37            4.5280     5.2094     1.2815 H       
  38 H38            4.9754     8.0888     1.5637 H       
  39 H39            3.2851     8.0787     3.2821 H       
  40 H40            3.6433     6.3817     3.7415 H       
  41 H41            5.1081     8.9118     4.4701 H       
  42 H42            4.9735     7.3819     5.3811 H       
  43 H43            6.1914     5.5736     2.8328 H       
  44 H44            7.0232     6.8627     1.9102 H       
  45 H45            6.8878     9.2421     5.6514 H       
  46 H46            6.7411     7.1319     6.9454 H       
  47 H47            8.5157     6.9951     6.9234 H       
  48 H48            9.8791     8.6352     5.6219 H       
  49 H49            9.0758     9.9404     4.7167 H       
  50 H50           10.0605    10.7954     6.8257 H       
  51 H51            8.2859    10.9322     6.8476 H       
  52 H52            9.9139     8.6853     8.1196 H       
  53 H53            9.1354    10.0262     8.9938 H       
  54 H54            6.9226     9.2922     8.1492 H       
  55 H55            7.7259     7.9870     9.0544 H       
@<TRIPOS>BOND
   1    1    2 ar
   2    1    5 ar
   3    1   10 1
   4    2   11 1
   5    2    3 ar
   6    3    4 ar
   7    4    7 ar
   8    5    7 ar
   9    5    6 1
  10    6    9 2
  11    6   12 1
  12    7    8 1
  13    8    9 1
  14    9   13 1
  15   10   29 1
  16   10   30 1
  17   10   31 1
  18   11   32 1
  19   11   33 1
  20   11   34 1
  21   12   35 1
  22   12   36 1
  23   13   14 2
  24   13   15 am
  25   15   16 1
  26   15   37 1
  27   16   17 1
  28   16   20 1
  29   16   38 1
  30   17   18 1
  31   17   39 1
  32   17   40 1
  33   18   19 1
  34   18   41 1
  35   18   42 1
  36   19   20 1
  37   19   21 am
  38   20   43 1
  39   20   44 1
  40   21   22 2
  41   21   23 1
  42   23   25 1
  43   23   24 1
  44   23   45 1
  45   24   28 1
  46   24   46 1
  47   24   47 1
  48   25   26 1
  49   25   48 1
  50   25   49 1
  51   26   27 1
  52   26   50 1
  53   26   51 1
  54   27   28 1
  55   27   52 1
  56   27   53 1
  57   28   54 1
  58   28   55 1

#	End of record

