#	Name: ASD06620006
#	Creating user name:	WinNT
#	Creation time:	15. 06. 2019 21:07

#	Modifying user name:	WinNT
#	Modification time:	15. 06. 2019 21:07

#	Program:	/corina/corina34_cracker 3.40 0067  02.08.2006

@<TRIPOS>MOLECULE
ASD06620006
  33   34    0    0    0
SMALL
NO_CHARGES


@<TRIPOS>ATOM
   1 C1            -0.0171     1.4069     0.0098 C.2     
   2 C2             0.0021    -0.0041     0.0020 C.2     
   3 C3             1.1969    -0.6556    -0.0129 C.2     
   4 C4             2.3936     0.0833    -0.0203 C.2     
   5 C5             2.3598     1.4317    -0.0123 C.2     
   6 N6             1.1684     2.0985     0.0022 N.pl3   
   7 N7            -1.0184     2.2729     0.0293 N.2     
   8 C8            -0.5297     3.5235     0.0286 C.2     
   9 C9             0.8614     3.4369     0.0123 C.2     
  10 C10           -1.3213     4.7639     0.0471 C.2     
  11 O11           -0.7609     5.8426     0.0440 O.2     
  12 O12           -2.6680     4.7040     0.0675 O.3     
  13 C13            1.7880     4.5287     0.0100 C.1     
  14 C14            2.5477     5.4238     0.0081 C.1     
  15 C15            3.5002     6.5460     0.0058 C.3     
  16 C16            2.7305     7.8683     0.0199 C.3     
  17 O17            3.6551     8.9578     0.0177 O.3     
  18 Cl18           1.2437    -2.3909    -0.0221 Cl      
  19 C19           -3.3838     5.9671     0.0849 C.3     
  20 C20           -4.8901     5.6994     0.1066 C.3     
  21 H21           -0.9228    -0.5618     0.0082 H       
  22 H22            3.3432    -0.4310    -0.0322 H       
  23 H23            3.2846     1.9896    -0.0175 H       
  24 H24            4.1350     6.4857     0.8898 H       
  25 H25            4.1191     6.4955    -0.8901 H       
  26 H26            2.0957     7.9286    -0.8641 H       
  27 H27            2.1116     7.9188     0.9158 H       
  28 H28            3.2362     9.8292     0.0262 H       
  29 H29           -3.1023     6.5321     0.9735 H       
  30 H30           -3.1297     6.5411    -0.8062 H       
  31 H31           -5.1442     5.1254     0.9977 H       
  32 H32           -5.4275     6.6476     0.1197 H       
  33 H33           -5.1716     5.1344    -0.7820 H       
@<TRIPOS>BOND
   1    1    2 1
   2    1    6 1
   3    1    7 2
   4    2    3 2
   5    2   21 1
   6    3    4 1
   7    3   18 1
   8    4    5 2
   9    4   22 1
  10    5    6 1
  11    5   23 1
  12    6    9 1
  13    7    8 1
  14    8    9 2
  15    8   10 1
  16    9   13 1
  17   10   11 2
  18   10   12 1
  19   12   19 1
  20   13   14 3
  21   14   15 1
  22   15   16 1
  23   15   24 1
  24   15   25 1
  25   16   17 1
  26   16   26 1
  27   16   27 1
  28   17   28 1
  29   19   20 1
  30   19   29 1
  31   19   30 1
  32   20   31 1
  33   20   32 1
  34   20   33 1

#	End of record

