#	Name: ASD01903346
#	Creating user name:	WinNT
#	Creation time:	15. 06. 2019 19:54

#	Modifying user name:	WinNT
#	Modification time:	15. 06. 2019 19:54

#	Program:	/corina/corina34_cracker 3.40 0067  02.08.2006

@<TRIPOS>MOLECULE
ASD01903346
  39   42    0    0    0
SMALL
NO_CHARGES


@<TRIPOS>ATOM
   1 C1            -0.0696     1.3353     0.1667 C.ar    
   2 C2            -0.0422    -0.0434     0.1546 C.ar    
   3 C3             1.1687    -0.7252     0.1115 C.ar    
   4 C4             2.3484    -0.0177     0.0801 C.ar    
   5 C5             2.3181     1.3722     0.0919 C.ar    
   6 C6             1.1157     2.0463     0.1352 C.ar    
   7 S7             1.4754    -2.4620     0.0883 S.o2    
   8 N8             3.1236    -2.6501     0.0353 N.am    
   9 S9             3.7346    -1.1070     0.0283 S.o2    
  10 O10            4.3464    -0.9212    -1.2408 O.2     
  11 O11            4.4246    -0.9408     1.2593 O.2     
  12 O12            1.0526    -2.9631     1.3490 O.2     
  13 O13            0.9744    -2.9436    -1.1511 O.2     
  14 C14            3.8423    -3.8499     0.0039 C.ar    
  15 C15            5.2301    -3.8268    -0.0394 C.ar    
  16 C16            5.9400    -5.0127    -0.0705 C.ar    
  17 C17            5.2635    -6.2276    -0.0583 C.ar    
  18 C18            3.8762    -6.2488    -0.0151 C.ar    
  19 C19            3.1678    -5.0640     0.0217 C.ar    
  20 N20            5.9824    -7.4307    -0.0903 N.am    
  21 C21            5.4084    -8.5458    -0.5839 C.2     
  22 C22            6.1881    -9.7823    -0.6988 C.2     
  23 O23            4.2429    -8.5264    -0.9342 O.2     
  24 C24            5.7322   -10.9767    -1.1789 C.2     
  25 C25            6.8071   -11.8767    -1.1085 C.2     
  26 C26            7.8586   -11.2009    -0.5951 C.2     
  27 O27            7.4831    -9.9379    -0.3542 O.3     
  28 F28            7.2901    -4.9913    -0.1131 F       
  29 H29           -1.0142     1.8581     0.1962 H       
  30 H30           -0.9687    -0.5979     0.1793 H       
  31 H31            3.2435     1.9285     0.0673 H       
  32 H32            1.1001     3.1261     0.1437 H       
  33 H33            5.7547    -2.8828    -0.0492 H       
  34 H34            3.3508    -7.1924    -0.0056 H       
  35 H35            2.0885    -5.0813     0.0557 H       
  36 H36            6.8929    -7.4606     0.2428 H       
  37 H37            4.7374   -11.1879    -1.5424 H       
  38 H38            6.7958   -12.9141    -1.4084 H       
  39 H39            8.8411   -11.6106    -0.4128 H       
@<TRIPOS>BOND
   1    1    2 ar
   2    1    6 ar
   3    1   29 1
   4    2    3 ar
   5    2   30 1
   6    3    4 ar
   7    3    7 1
   8    4    5 ar
   9    4    9 1
  10    5    6 ar
  11    5   31 1
  12    6   32 1
  13    7    8 am
  14    7   12 2
  15    7   13 2
  16    8    9 am
  17    8   14 1
  18    9   10 2
  19    9   11 2
  20   14   15 ar
  21   14   19 ar
  22   15   16 ar
  23   15   33 1
  24   16   17 ar
  25   16   28 1
  26   17   18 ar
  27   17   20 1
  28   18   19 ar
  29   18   34 1
  30   19   35 1
  31   20   21 am
  32   20   36 1
  33   21   22 1
  34   21   23 2
  35   22   24 2
  36   22   27 1
  37   24   25 1
  38   24   37 1
  39   25   26 2
  40   25   38 1
  41   26   27 1
  42   26   39 1

#	End of record

