#	Name: ASD03920010
#	Creating user name:	WinNT
#	Creation time:	15. 06. 2019 20:47

#	Modifying user name:	WinNT
#	Modification time:	15. 06. 2019 20:47

#	Program:	/corina/corina34_cracker 3.40 0067  02.08.2006

@<TRIPOS>MOLECULE
ASD03920010
  52   55    0    0    0
SMALL
NO_CHARGES


@<TRIPOS>ATOM
   1 C1            -0.0180     1.4743     0.0101 C.2     
   2 C2             0.0021    -0.0041     0.0020 C.ar    
   3 C3             1.2185    -0.6884    -0.0133 C.ar    
   4 C4             1.2301    -2.0689    -0.0208 C.ar    
   5 C5             0.0380    -2.7738    -0.0138 C.ar    
   6 C6            -1.1702    -2.1007     0.0014 C.ar    
   7 C7            -1.1951    -0.7211     0.0154 C.ar    
   8 O8             1.0263     2.0963     0.0035 O.2     
   9 N9            -1.1942     2.1322     0.0193 N.am    
  10 C10           -1.2141     3.5971     0.0274 C.3     
  11 C11           -2.5311     4.0925    -0.5733 C.3     
  12 C12           -3.7017     3.5620     0.2567 C.3     
  13 C13           -3.5761     4.0659     1.6959 C.3     
  14 C14           -2.2591     3.5704     2.2966 C.3     
  15 C15           -1.0885     4.1009     1.4665 C.3     
  16 N16           -4.6971     3.5579     2.4907 N.pl3   
  17 N17           -5.9022     4.2233     2.7570 N.2     
  18 N18           -6.6359     3.4572     3.4869 N.2     
  19 C19           -5.9843     2.3063     3.7263 C.2     
  20 C20           -4.7706     2.3585     3.1018 C.2     
  21 C21           -6.4954     1.1760     4.5248 C.2     
  22 O22           -5.8138     0.1803     4.6749 O.2     
  23 N23           -7.7178     1.2470     5.0879 N.am    
  24 C24           -8.3473     0.1989     5.9044 C.3     
  25 C25           -9.7462     0.7106     6.3079 C.3     
  26 C26          -10.0497     1.7814     5.2269 C.3     
  27 C27           -8.6426     2.3912     4.9925 C.3     
  28 Cl28           2.7415    -2.9227    -0.0399 Cl      
  29 H29            2.1485    -0.1392    -0.0195 H       
  30 H30            0.0518    -3.8537    -0.0204 H       
  31 H31           -2.0964    -2.6563     0.0065 H       
  32 H32           -2.1394    -0.1972     0.0317 H       
  33 H33           -2.0276     1.6359     0.0206 H       
  34 H34           -0.3801     3.9750    -0.5640 H       
  35 H35           -2.5459     5.1824    -0.5673 H       
  36 H36           -2.6206     3.7336    -1.5986 H       
  37 H37           -4.6400     3.9150    -0.1712 H       
  38 H38           -3.6870     2.4722     0.2507 H       
  39 H39           -3.5909     5.1558     1.7019 H       
  40 H40           -2.1696     3.9293     3.3219 H       
  41 H41           -2.2443     2.4805     2.2906 H       
  42 H42           -0.1502     3.7479     1.8945 H       
  43 H43           -1.1032     5.1908     1.4725 H       
  44 H44           -4.0142     1.5876     3.0996 H       
  45 H45           -8.4416    -0.7179     5.3223 H       
  46 H46           -7.7486     0.0141     6.7963 H       
  47 H47          -10.4782    -0.0960     6.2680 H       
  48 H48           -9.7207     1.1609     7.3002 H       
  49 H49          -10.4357     1.3203     4.3178 H       
  50 H50          -10.7415     2.5338     5.6056 H       
  51 H51           -8.4136     3.1292     5.7613 H       
  52 H52           -8.5857     2.8434     4.0024 H       
@<TRIPOS>BOND
   1    1    2 1
   2    1    8 2
   3    1    9 am
   4    2    3 ar
   5    2    7 ar
   6    3    4 ar
   7    3   29 1
   8    4    5 ar
   9    4   28 1
  10    5    6 ar
  11    5   30 1
  12    6    7 ar
  13    6   31 1
  14    7   32 1
  15    9   10 1
  16    9   33 1
  17   10   11 1
  18   10   15 1
  19   10   34 1
  20   11   12 1
  21   11   35 1
  22   11   36 1
  23   12   13 1
  24   12   37 1
  25   12   38 1
  26   13   14 1
  27   13   16 1
  28   13   39 1
  29   14   15 1
  30   14   40 1
  31   14   41 1
  32   15   42 1
  33   15   43 1
  34   16   17 1
  35   16   20 1
  36   17   18 2
  37   18   19 1
  38   19   20 2
  39   19   21 1
  40   20   44 1
  41   21   22 2
  42   21   23 am
  43   23   24 1
  44   23   27 1
  45   24   25 1
  46   24   45 1
  47   24   46 1
  48   25   26 1
  49   25   47 1
  50   25   48 1
  51   26   27 1
  52   26   49 1
  53   26   50 1
  54   27   51 1
  55   27   52 1

#	End of record

