#	Name: ASD07930798
#	Creating user name:	WinNT
#	Creation time:	15. 06. 2019 21:13

#	Modifying user name:	WinNT
#	Modification time:	15. 06. 2019 21:13

#	Program:	/corina/corina34_cracker 3.40 0067  02.08.2006

@<TRIPOS>MOLECULE
ASD07930798
  42   44    0    0    0
SMALL
NO_CHARGES


@<TRIPOS>ATOM
   1 C1             2.9713    -1.1785    -1.4902 C.3     
   2 N2             2.4546    -3.0909     0.7429 N.2     
   3 N3             0.4221    -3.4517    -0.3526 N.pl3   
   4 C4            -0.9005    -2.8248    -0.2586 C.3     
   5 C5            -0.9791    -1.6578    -1.2526 C.3     
   6 S6             0.3867    -0.5089    -0.8937 S.o2    
   7 N7             1.7095    -1.5201    -0.8289 N.am    
   8 C8             1.5566    -2.7020    -0.1180 C.2     
   9 C9            -1.1179    -2.3011     1.1624 C.3     
  10 C10           -1.9634    -3.8404    -0.5898 C.ar    
  11 C11           -2.7939    -3.6312    -1.6682 C.ar    
  12 C12           -3.7770    -4.5649    -1.9791 C.ar    
  13 C13           -3.9125    -5.7175    -1.1849 C.ar    
  14 C14           -3.0630    -5.9170    -0.0943 C.ar    
  15 C15           -2.0923    -4.9822     0.1930 C.ar    
  16 F16           -1.2681    -5.1712     1.2467 F       
  17 N17           -4.7354    -4.6375    -2.9668 N.pl3   
  18 C18           -5.4641    -5.7865    -2.8238 C.2     
  19 C19           -5.0177    -6.4830    -1.7666 C.2     
  20 C20           -6.5999    -6.2078    -3.7203 C.3     
  21 O21            0.6386     0.3384    -2.0064 O.2     
  22 O22            0.2724     0.0151     0.4222 O.2     
  23 C23           -6.0715    -7.1491    -4.8046 C.3     
  24 H24            3.6040    -0.6208    -0.7997 H       
  25 H25            3.4818    -2.0927    -1.7931 H       
  26 H26            2.7670    -0.5679    -2.3697 H       
  27 H27            3.2460    -2.5512     0.8955 H       
  28 H28            0.4991    -4.3926    -0.5753 H       
  29 H29           -0.8839    -2.0353    -2.2707 H       
  30 H30           -1.9326    -1.1420    -1.1391 H       
  31 H31           -0.3496    -1.5652     1.3999 H       
  32 H32           -2.1009    -1.8354     1.2316 H       
  33 H33           -1.0579    -3.1297     1.8681 H       
  34 H34           -2.6823    -2.7427    -2.2719 H       
  35 H35           -3.1641    -6.8007     0.5183 H       
  36 H36           -4.8727    -3.9730    -3.6600 H       
  37 H37           -5.4007    -7.4286    -1.4122 H       
  38 H38           -7.3572    -6.7230    -3.1294 H       
  39 H39           -7.0404    -5.3268    -4.1870 H       
  40 H40           -6.8929    -7.4538    -5.4530 H       
  41 H41           -5.3141    -6.6339    -5.3954 H       
  42 H42           -5.6310    -8.0301    -4.3379 H       
@<TRIPOS>BOND
   1    1    7 1
   2    1   24 1
   3    1   25 1
   4    1   26 1
   5    2    8 2
   6    2   27 1
   7    3    4 1
   8    3    8 1
   9    3   28 1
  10    4    5 1
  11    4    9 1
  12    4   10 1
  13    5    6 1
  14    5   29 1
  15    5   30 1
  16    6    7 am
  17    6   21 2
  18    6   22 2
  19    7    8 1
  20    9   31 1
  21    9   32 1
  22    9   33 1
  23   10   11 ar
  24   10   15 ar
  25   11   12 ar
  26   11   34 1
  27   12   13 ar
  28   12   17 1
  29   13   14 ar
  30   13   19 1
  31   14   15 ar
  32   14   35 1
  33   15   16 1
  34   17   18 1
  35   17   36 1
  36   18   19 2
  37   18   20 1
  38   19   37 1
  39   20   23 1
  40   20   38 1
  41   20   39 1
  42   23   40 1
  43   23   41 1
  44   23   42 1

#	End of record

