#	Name: ASD00960123
#	Creating user name:	WinNT
#	Creation time:	15. 06. 2019 18:53

#	Modifying user name:	WinNT
#	Modification time:	15. 06. 2019 18:53

#	Program:	/corina/corina34_cracker 3.40 0067  02.08.2006

@<TRIPOS>MOLECULE
ASD00960123
  41   44    0    0    0
SMALL
NO_CHARGES


@<TRIPOS>ATOM
   1 C1             0.0738     1.4307     0.0756 C.3     
   2 C2             0.0473    -0.1138     0.0747 C.3     
   3 O3            -1.0794    -0.4640     0.9077 O.3     
   4 C4            -1.0359     0.4616     2.0154 C.3     
   5 C5            -2.4076     0.5537     2.6868 C.3     
   6 C6            -0.1533    -0.6343    -1.3252 C.2     
   7 C7             0.8304    -0.8329    -2.2337 C.2     
   8 N8            -1.3452    -0.9813    -1.8671 N.pl3   
   9 C9            -1.1363    -1.4107    -3.1592 C.2     
  10 C10            0.2347    -1.3254    -3.4136 C.2     
  11 N11           -2.6576    -0.9771    -1.3724 N.2     
  12 C12           -3.6433    -1.3735    -2.1313 C.2     
  13 N13           -3.4537    -1.7907    -3.3806 N.2     
  14 C14           -2.2467    -1.8254    -3.9229 C.2     
  15 N15           -2.0769    -2.2628    -5.2219 N.pl3   
  16 C16           -0.6552     1.8180     1.3817 C.3     
  17 C17            0.9223    -1.6794    -4.6667 C.2     
  18 O18           -2.7730    -0.7283     3.2016 O.3     
  19 N19            1.8019    -0.9331    -5.2979 N.2     
  20 C20            2.2082    -1.5872    -6.3980 C.2     
  21 C21            1.5606    -2.7643    -6.4413 C.2     
  22 O22            0.7609    -2.8233    -5.3558 O.3     
  23 O23            0.2190     2.5467     2.2459 O.3     
  24 *24            0.1617     3.9449     2.0732 Du      
  25 N25           -0.0206     0.0471     2.9868 N.2     
  26 N26           -0.1119    -0.9454     3.5063 N.1     
  27 N27           -0.2032    -1.9380     4.0258 N.pl3   
  28 O28            1.4205     1.9084     0.0933 O.3     
  29 *29            1.5965     3.1517    -0.5481 Du      
  30 H30           -0.4579     1.8223    -0.7916 H       
  31 H31            0.9702    -0.5094     0.4989 H       
  32 H32           -2.3649     1.2745     3.5033 H       
  33 H33           -3.1490     0.8764     1.9557 H       
  34 H34            1.8835    -0.6471    -2.0822 H       
  35 H35           -4.6465    -1.3626    -1.7315 H       
  36 H36           -2.8219    -2.6565    -5.7024 H       
  37 H37           -1.2126    -2.1764    -5.6537 H       
  38 H38           -1.5494     2.4011     1.1615 H       
  39 H39           -3.6338    -0.7446     3.6419 H       
  40 H40            2.9279    -1.2307    -7.1200 H       
  41 H41            1.6638    -3.5238    -7.2021 H       
@<TRIPOS>BOND
   1    1    2 1
   2    1   28 1
   3    1   16 1
   4    1   30 1
   5    2    3 1
   6    2    6 1
   7    2   31 1
   8    3    4 1
   9    4    5 1
  10    4   25 1
  11    4   16 1
  12    5   18 1
  13    5   32 1
  14    5   33 1
  15    6    7 2
  16    6    8 1
  17    7   10 1
  18    7   34 1
  19    8    9 1
  20    8   11 1
  21    9   10 2
  22    9   14 1
  23   10   17 1
  24   11   12 2
  25   12   13 1
  26   12   35 1
  27   13   14 2
  28   14   15 1
  29   15   36 1
  30   15   37 1
  31   16   23 1
  32   16   38 1
  33   17   19 2
  34   17   22 1
  35   18   39 1
  36   19   20 1
  37   20   21 2
  38   20   40 1
  39   21   22 1
  40   21   41 1
  41   23   24 1
  42   25   26 2
  43   26   27 2
  44   28   29 1

#	End of record

