#	Name: ASD03082257
#	Creating user name:	WinNT
#	Creation time:	15. 06. 2019 20:27

#	Modifying user name:	WinNT
#	Modification time:	15. 06. 2019 20:27

#	Program:	/corina/corina34_cracker 3.40 0067  02.08.2006

@<TRIPOS>MOLECULE
ASD03082257
  40   42    0    0    0
SMALL
NO_CHARGES


@<TRIPOS>ATOM
   1 N1             0.2568     1.8560    -0.2114 N.pl3   
   2 N2             0.0330     0.4706    -0.2634 N.2     
   3 C3             1.1815    -0.1124    -0.0056 C.2     
   4 N4             2.1074     0.8243     0.2037 N.2     
   5 C5             1.5657     2.0197     0.0832 C.2     
   6 N6             1.3981    -1.4908     0.0415 N.pl3   
   7 C7             0.3181    -2.3735    -0.0774 C.ar    
   8 C8             0.5224    -3.6610    -0.5567 C.ar    
   9 C9            -0.5434    -4.5309    -0.6737 C.ar    
  10 C10           -1.8181    -4.1194    -0.3126 C.ar    
  11 C11           -2.0231    -2.8340     0.1661 C.ar    
  12 C12           -0.9571    -1.9643     0.2892 C.ar    
  13 C13           -0.3220    -5.9277    -1.1942 C.3     
  14 F14            1.0338    -6.1060    -1.4892 F       
  15 F15           -0.7138    -6.8550    -0.2227 F       
  16 F16           -1.0807    -6.1189    -2.3540 F       
  17 C17            2.2492     5.6752     0.6345 C.ar    
  18 C18            1.5551     4.4911     0.4927 C.ar    
  19 C19            2.2672     3.3133     0.2420 C.ar    
  20 C20            3.6607     3.3920     0.1460 C.ar    
  21 C21            4.2737     4.6184     0.3011 C.ar    
  22 N22            3.5644     5.7053     0.5365 N.ar    
  23 C23           -0.7310     2.9139    -0.4379 C.3     
  24 O24           -1.3652     3.2461     0.7988 O.3     
  25 O25           -2.8674    -4.9767    -0.4286 O.3     
  26 C26           -4.1518    -4.4866    -0.0386 C.3     
  27 H27            2.2969    -1.8369     0.1567 H       
  28 H28            1.5146    -3.9814    -0.8382 H       
  29 H29           -3.0157    -2.5144     0.4470 H       
  30 H30           -1.1161    -0.9649     0.6665 H       
  31 H31            1.7081     6.5905     0.8238 H       
  32 H32            0.4783     4.4738     0.5745 H       
  33 H33            4.2478     2.5061    -0.0463 H       
  34 H34            5.3490     4.6893     0.2290 H       
  35 H35           -0.2327     3.7963    -0.8393 H       
  36 H36           -1.4805     2.5651    -1.1484 H       
  37 H37           -2.0329     3.9416     0.7240 H       
  38 H38           -4.4114    -3.6217    -0.6492 H       
  39 H39           -4.8976    -5.2687    -0.1807 H       
  40 H40           -4.1261    -4.1954     1.0114 H       
@<TRIPOS>BOND
   1    1    2 1
   2    1    5 1
   3    1   23 1
   4    2    3 2
   5    3    4 1
   6    3    6 1
   7    4    5 2
   8    5   19 1
   9    6    7 1
  10    6   27 1
  11    7    8 ar
  12    7   12 ar
  13    8    9 ar
  14    8   28 1
  15    9   10 ar
  16    9   13 1
  17   10   11 ar
  18   10   25 1
  19   11   12 ar
  20   11   29 1
  21   12   30 1
  22   13   14 1
  23   13   15 1
  24   13   16 1
  25   17   18 ar
  26   17   22 ar
  27   17   31 1
  28   18   19 ar
  29   18   32 1
  30   19   20 ar
  31   20   21 ar
  32   20   33 1
  33   21   22 ar
  34   21   34 1
  35   23   24 1
  36   23   35 1
  37   23   36 1
  38   24   37 1
  39   25   26 1
  40   26   38 1
  41   26   39 1
  42   26   40 1

#	End of record

