#	Name: ASD02770046
#	Creating user name:	WinNT
#	Creation time:	15. 06. 2019 20:26

#	Modifying user name:	WinNT
#	Modification time:	15. 06. 2019 20:26

#	Program:	/corina/corina34_cracker 3.40 0067  02.08.2006

@<TRIPOS>MOLECULE
ASD02770046
  41   42    0    0    0
SMALL
NO_CHARGES


@<TRIPOS>ATOM
   1 C1            -2.3013     1.4137     0.1399 C.2     
   2 C2            -2.2469    -0.0630     0.1736 C.ar    
   3 C3            -3.4258    -0.8062     0.2550 C.ar    
   4 C4            -3.3678    -2.1849     0.2856 C.ar    
   5 C5            -2.1437    -2.8303     0.2362 C.ar    
   6 C6            -0.9723    -2.0990     0.1559 C.ar    
   7 C7            -1.0169    -0.7205     0.1183 C.ar    
   8 O8            -3.3744     1.9837     0.1831 O.2     
   9 N9            -1.1610     2.1286     0.0669 N.am    
  10 C10           -1.2152     3.5193    -0.0813 C.2     
  11 C11           -0.0715     4.2529    -0.0351 C.2     
  12 C12           -2.5046     4.1846    -0.2862 C.2     
  13 O13           -3.1291     4.6090     0.6687 O.2     
  14 N14           -2.9991     4.3267    -1.5319 N.am    
  15 C15           -4.3364     4.8915    -1.7290 C.3     
  16 C16           -4.6529     4.9426    -3.2251 C.3     
  17 C17           -6.0495     5.5325    -3.4310 C.3     
  18 O18           -6.3452     5.5802    -4.8283 O.3     
  19 O19           -1.2210     6.3815    -0.5104 O.3     
  20 C20           -0.1113     5.6441    -0.2982 C.2     
  21 C21            0.9772     6.4865    -0.3828 C.2     
  22 C22            0.4708     7.7675    -0.6562 C.2     
  23 C23           -0.8736     7.6590    -0.7259 C.2     
  24 Br24          -4.9631    -3.1943     0.3959 Br      
  25 H25           -4.3809    -0.3036     0.2943 H       
  26 H26           -2.1034    -3.9092     0.2608 H       
  27 H27           -0.0208    -2.6085     0.1184 H       
  28 H28           -0.1016    -0.1511     0.0512 H       
  29 H29           -0.3029     1.6792     0.1170 H       
  30 H30            0.8674     3.7749     0.2023 H       
  31 H31           -2.4696     4.0550    -2.2978 H       
  32 H32           -5.0727     4.2671    -1.2230 H       
  33 H33           -4.3696     5.8996    -1.3160 H       
  34 H34           -3.9166     5.5670    -3.7311 H       
  35 H35           -4.6197     3.9345    -3.6382 H       
  36 H36           -6.7859     4.9081    -2.9250 H       
  37 H37           -6.0827     6.5406    -3.0179 H       
  38 H38           -7.2172     5.9442    -5.0336 H       
  39 H39            2.0154     6.2146    -0.2621 H       
  40 H40            1.0485     8.6707    -0.7863 H       
  41 H41           -1.5586     8.4702    -0.9238 H       
@<TRIPOS>BOND
   1    1    2 1
   2    1    8 2
   3    1    9 am
   4    2    3 ar
   5    2    7 ar
   6    3    4 ar
   7    3   25 1
   8    4    5 ar
   9    4   24 1
  10    5    6 ar
  11    5   26 1
  12    6    7 ar
  13    6   27 1
  14    7   28 1
  15    9   10 1
  16    9   29 1
  17   10   11 2
  18   10   12 1
  19   11   20 1
  20   11   30 1
  21   12   13 2
  22   12   14 am
  23   14   15 1
  24   14   31 1
  25   15   16 1
  26   15   32 1
  27   15   33 1
  28   16   17 1
  29   16   34 1
  30   16   35 1
  31   17   18 1
  32   17   36 1
  33   17   37 1
  34   18   38 1
  35   19   20 1
  36   19   23 1
  37   20   21 2
  38   21   22 1
  39   21   39 1
  40   22   23 2
  41   22   40 1
  42   23   41 1

#	End of record

