#	Name: ASD04880438
#	Creating user name:	WinNT
#	Creation time:	15. 06. 2019 20:53

#	Modifying user name:	WinNT
#	Modification time:	15. 06. 2019 20:53

#	Program:	/corina/corina34_cracker 3.40 0067  02.08.2006

@<TRIPOS>MOLECULE
ASD04880438
  53   55    0    0    0
SMALL
NO_CHARGES


@<TRIPOS>ATOM
   1 C1            -0.0144     1.2118     0.0087 C.2     
   2 O2             0.0415    -0.0027     0.0315 O.2     
   3 N3             1.1198     1.9376    -0.0480 N.am    
   4 N4             1.1898     3.3219    -0.1904 N.2     
   5 C5             2.3908     3.7880    -0.2191 C.2     
   6 C6             3.3775     2.6502    -0.0849 C.3     
   7 C7             2.4863     1.3983     0.0368 C.3     
   8 C8             2.7087     0.7044     1.3821 C.3     
   9 C9             2.7570     0.4335    -1.1195 C.3     
  10 C10            2.7478     5.2112    -0.3613 C.ar    
  11 C11            1.7442     6.1770    -0.4779 C.ar    
  12 C12            2.0845     7.5097    -0.6105 C.ar    
  13 C13            3.4256     7.8883    -0.6278 C.ar    
  14 C14            4.4218     6.9302    -0.5126 C.ar    
  15 C15            4.0899     5.5985    -0.3741 C.ar    
  16 O16            3.7582     9.1998    -0.7583 O.3     
  17 C17            5.1513     9.5179    -0.7685 C.3     
  18 O18            1.1106     8.4520    -0.7246 O.3     
  19 C19           -0.2424     7.9929    -0.6996 C.3     
  20 C20           -1.3263     1.8918     0.0371 C.ar    
  21 C21           -2.5039     1.1476    -0.0545 C.ar    
  22 C22           -3.7251     1.7887    -0.0274 C.ar    
  23 C23           -3.7844     3.1660     0.0902 C.ar    
  24 C24           -2.6211     3.9096     0.1814 C.ar    
  25 C25           -1.3935     3.2807     0.1613 C.ar    
  26 C26           -5.1221     3.8595     0.1186 C.3     
  27 C27           -5.6086     3.9700     1.5649 C.3     
  28 H28            4.0119     2.5880    -0.9691 H       
  29 H29            3.9827     2.7729     0.8133 H       
  30 H30            2.0156    -0.1312     1.4790 H       
  31 H31            3.7328     0.3350     1.4355 H       
  32 H32            2.5363     1.4151     2.1904 H       
  33 H33            2.6184     0.9541    -2.0670 H       
  34 H34            3.7809     0.0655    -1.0535 H       
  35 H35            2.0646    -0.4063    -1.0616 H       
  36 H36            0.7053     5.8823    -0.4647 H       
  37 H37            5.4598     7.2279    -0.5272 H       
  38 H38            4.8675     4.8551    -0.2798 H       
  39 H39            5.2773    10.5950    -0.8781 H       
  40 H40            5.6052     9.1924     0.1676 H       
  41 H41            5.6342     9.0089    -1.6027 H       
  42 H42           -0.9167     8.8435    -0.7992 H       
  43 H43           -0.4065     7.3006    -1.5254 H       
  44 H44           -0.4362     7.4843     0.2448 H       
  45 H45           -2.4589     0.0725    -0.1467 H       
  46 H46           -4.6368     1.2142    -0.0985 H       
  47 H47           -2.6745     4.9844     0.2730 H       
  48 H48           -0.4862     3.8622     0.2330 H       
  49 H49           -5.0232     4.8573    -0.3088 H       
  50 H50           -5.8419     3.2844    -0.4640 H       
  51 H51           -4.8889     4.5451     2.1475 H       
  52 H52           -6.5762     4.4716     1.5855 H       
  53 H53           -5.7075     2.9722     1.9923 H       
@<TRIPOS>BOND
   1    1    2 2
   2    1    3 am
   3    1   20 1
   4    3    4 1
   5    3    7 1
   6    4    5 2
   7    5    6 1
   8    5   10 1
   9    6    7 1
  10    6   28 1
  11    6   29 1
  12    7    8 1
  13    7    9 1
  14    8   30 1
  15    8   31 1
  16    8   32 1
  17    9   33 1
  18    9   34 1
  19    9   35 1
  20   10   11 ar
  21   10   15 ar
  22   11   12 ar
  23   11   36 1
  24   12   13 ar
  25   12   18 1
  26   13   14 ar
  27   13   16 1
  28   14   15 ar
  29   14   37 1
  30   15   38 1
  31   16   17 1
  32   17   39 1
  33   17   40 1
  34   17   41 1
  35   18   19 1
  36   19   42 1
  37   19   43 1
  38   19   44 1
  39   20   21 ar
  40   20   25 ar
  41   21   22 ar
  42   21   45 1
  43   22   23 ar
  44   22   46 1
  45   23   24 ar
  46   23   26 1
  47   24   25 ar
  48   24   47 1
  49   25   48 1
  50   26   27 1
  51   26   49 1
  52   26   50 1
  53   27   51 1
  54   27   52 1
  55   27   53 1

#	End of record

