#	Name: ASD01815905
#	Creating user name:	WinNT
#	Creation time:	15. 06. 2019 19:34

#	Modifying user name:	WinNT
#	Modification time:	15. 06. 2019 19:34

#	Program:	/corina/corina34_cracker 3.40 0067  02.08.2006

@<TRIPOS>MOLECULE
ASD01815905
  57   62    0    0    0
SMALL
NO_CHARGES


@<TRIPOS>ATOM
   1 C1             0.1065     1.4781     0.3815 C.ar    
   2 C2             0.0863     0.0931     0.3727 C.ar    
   3 C3             1.2566    -0.6272     0.2335 C.ar    
   4 C4             2.4729     0.0371     0.1001 C.ar    
   5 C5             2.4904     1.4412     0.1092 C.ar    
   6 C6             1.3032     2.1567     0.2504 C.ar    
   7 N7             3.6499    -0.6795    -0.0394 N.pl3   
   8 C8             4.8508    -0.0941    -0.1713 C.2     
   9 C9             4.9914     1.2716    -0.1764 C.2     
  10 C10            3.7897     2.1249    -0.0336 C.2     
  11 C11            6.1081     2.2038    -0.2956 C.2     
  12 N12            5.5738     3.4421    -0.2253 N.am    
  13 N13            4.1876     3.3642    -0.0689 N.2     
  14 C14            6.3046     4.6336    -0.2980 C.ar    
  15 O15            7.2874     1.9211    -0.4314 O.2     
  16 C16            3.5814    -2.1429    -0.0427 C.3     
  17 C17            3.4348    -2.6357    -1.4593 C.ar    
  18 C18            4.5542    -2.7846    -2.2574 C.ar    
  19 C19            4.4230    -3.2356    -3.5562 C.ar    
  20 C20            3.1656    -3.5401    -4.0602 C.ar    
  21 C21            2.0436    -3.3900    -3.2563 C.ar    
  22 C22            2.1818    -2.9435    -1.9566 C.ar    
  23 N23            3.0292    -3.9976    -5.3782 N.pl3   
  24 C24            1.8693    -4.3278    -5.9900 C.2     
  25 F25            1.3219     3.5075     0.2595 F       
  26 F26            1.2210    -1.9777     0.2273 F       
  27 C27            2.1659    -4.7196    -7.2508 C.2     
  28 C28            3.5521    -4.6262    -7.4161 C.2     
  29 N29            4.0696    -4.1880    -6.2967 N.2     
  30 C30            6.1954     5.5797     0.7128 C.ar    
  31 C31            7.1452     4.8699    -1.3785 C.ar    
  32 C32            7.7501     6.9886    -0.4411 C.ar    
  33 C33            6.9184     6.7543     0.6383 C.ar    
  34 C34            7.8651     6.0461    -1.4469 C.ar    
  35 C35            6.7961     7.7840     1.7318 C.3     
  36 C36            5.2888     5.3254     1.8894 C.3     
  37 H37           -0.8163     2.0294     0.4866 H       
  38 H38           -0.8537    -0.4287     0.4762 H       
  39 H39            5.7292    -0.7136    -0.2757 H       
  40 H40            4.4946    -2.5504     0.3911 H       
  41 H41            2.7232    -2.4678     0.5456 H       
  42 H42            5.5320    -2.5476    -1.8648 H       
  43 H43            5.2975    -3.3510    -4.1793 H       
  44 H44            1.0642    -3.6257    -3.6457 H       
  45 H45            1.3094    -2.8266    -1.3308 H       
  46 H46            0.8834    -4.2867    -5.5510 H       
  47 H47            1.4576    -5.0466    -7.9977 H       
  48 H48            4.1003    -4.8695    -8.3143 H       
  49 H49            7.2357     4.1342    -2.1639 H       
  50 H50            8.3143     7.9078    -0.4970 H       
  51 H51            8.5191     6.2303    -2.2865 H       
  52 H52            5.9880     8.4750     1.4915 H       
  53 H53            6.5796     7.2863     2.6770 H       
  54 H54            7.7323     8.3357     1.8177 H       
  55 H55            5.8474     4.8172     2.6753 H       
  56 H56            4.9103     6.2747     2.2684 H       
  57 H57            4.4528     4.7003     1.5755 H       
@<TRIPOS>BOND
   1    1    2 ar
   2    1    6 ar
   3    1   37 1
   4    2    3 ar
   5    2   38 1
   6    3    4 ar
   7    3   26 1
   8    4    5 ar
   9    4    7 1
  10    5    6 ar
  11    5   10 1
  12    6   25 1
  13    7    8 1
  14    7   16 1
  15    8    9 2
  16    8   39 1
  17    9   10 1
  18    9   11 1
  19   10   13 2
  20   11   12 am
  21   11   15 2
  22   12   13 1
  23   12   14 1
  24   14   30 ar
  25   14   31 ar
  26   16   17 1
  27   16   40 1
  28   16   41 1
  29   17   18 ar
  30   17   22 ar
  31   18   19 ar
  32   18   42 1
  33   19   20 ar
  34   19   43 1
  35   20   21 ar
  36   20   23 1
  37   21   22 ar
  38   21   44 1
  39   22   45 1
  40   23   24 1
  41   23   29 1
  42   24   27 2
  43   24   46 1
  44   27   28 1
  45   27   47 1
  46   28   29 2
  47   28   48 1
  48   30   36 1
  49   30   33 ar
  50   31   34 ar
  51   31   49 1
  52   32   33 ar
  53   32   34 ar
  54   32   50 1
  55   33   35 1
  56   34   51 1
  57   35   52 1
  58   35   53 1
  59   35   54 1
  60   36   55 1
  61   36   56 1
  62   36   57 1

#	End of record

