#	Name: ASD03330791
#	Creating user name:	WinNT
#	Creation time:	15. 06. 2019 20:37

#	Modifying user name:	WinNT
#	Modification time:	15. 06. 2019 20:37

#	Program:	/corina/corina34_cracker 3.40 0067  02.08.2006

@<TRIPOS>MOLECULE
ASD03330791
  57   59    0    0    0
SMALL
NO_CHARGES


@<TRIPOS>ATOM
   1 C1            -0.2828     1.8885    -0.8636 C.2     
   2 N2            -0.5112     0.5483    -0.8656 N.pl3   
   3 C3             0.9305     2.0869    -0.2778 C.2     
   4 N4             1.4318     0.8765     0.0522 N.2     
   5 C5             0.5759    -0.0532    -0.3021 C.2     
   6 C6             0.7592    -1.5098    -0.1207 C.ar    
   7 C7             1.5805     3.3889    -0.0458 C.2     
   8 O8             1.0261     4.4152    -0.3899 O.2     
   9 C9             3.4356     4.7367     0.7784 C.3     
  10 N10            2.7894     3.4423     0.5478 N.am    
  11 C11            4.1976     5.1576    -0.4797 C.3     
  12 C12            4.3974     4.6194     1.9326 C.2     
  13 O13            4.9195     3.5532     2.1810 O.2     
  14 C14           -1.7199    -0.1070    -1.3729 C.3     
  15 C15           -2.0658     0.4723    -2.7482 C.3     
  16 C16           -2.9434     1.7086    -2.5811 C.3     
  17 N17           -2.5885     2.4467    -1.3674 N.3     
  18 C18           -1.2042     2.9391    -1.4269 C.3     
  19 C19            2.0392    -2.0644    -0.1605 C.ar    
  20 C20            2.2046    -3.4247     0.0100 C.ar    
  21 C21           -3.5295     3.5489    -1.1275 C.3     
  22 N22            4.6774     5.6992     2.6889 N.am    
  23 C23            1.0999    -4.2388     0.2200 C.ar    
  24 C24            3.2192     5.2889    -1.6486 C.3     
  25 C25            4.8828     6.5035    -0.2346 C.3     
  26 C26            5.2529     4.1015    -0.8141 C.3     
  27 C27           -0.3463    -2.3325     0.0965 C.ar    
  28 C28           -0.1716    -3.6913     0.2600 C.ar    
  29 F29            1.2657    -5.5693     0.3854 F       
  30 F30            3.4427    -3.9640    -0.0282 F       
  31 H31            2.6778     5.4847     1.0116 H       
  32 H32            3.2315     2.6237     0.8223 H       
  33 H33           -1.5427    -1.1787    -1.4631 H       
  34 H34           -2.5464     0.0700    -0.6847 H       
  35 H35           -1.1475     0.7472    -3.2671 H       
  36 H36           -2.6012    -0.2761    -3.3325 H       
  37 H37           -2.8135     2.3590    -3.4461 H       
  38 H38           -3.9872     1.4006    -2.5201 H       
  39 H39           -1.1170     3.8532    -0.8396 H       
  40 H40           -0.9342     3.1431    -2.4631 H       
  41 H41            2.8985    -1.4312    -0.3246 H       
  42 H42           -4.5365     3.1481    -1.0110 H       
  43 H43           -3.2428     4.0804    -0.2201 H       
  44 H44           -3.5076     4.2360    -1.9733 H       
  45 H45            4.2035     6.5323     2.5393 H       
  46 H46            5.3528     5.6434     3.3829 H       
  47 H47            2.4674     6.0413    -1.4104 H       
  48 H48            3.7621     5.5888    -2.5449 H       
  49 H49            2.7311     4.3301    -1.8233 H       
  50 H50            5.6507     6.3863     0.5301 H       
  51 H51            5.3418     6.8515    -1.1600 H       
  52 H52            4.1442     7.2315     0.1008 H       
  53 H53            4.7648     3.1427    -0.9887 H       
  54 H54            5.7958     4.4014    -1.7104 H       
  55 H55            5.9500     4.0080     0.0187 H       
  56 H56           -1.3382    -1.9068     0.1322 H       
  57 H57           -1.0275    -4.3282     0.4278 H       
@<TRIPOS>BOND
   1    1    2 1
   2    1    3 2
   3    1   18 1
   4    2   14 1
   5    2    5 1
   6    3    4 1
   7    3    7 1
   8    4    5 2
   9    5    6 1
  10    6   27 ar
  11    6   19 ar
  12    7    8 2
  13    7   10 am
  14    9   10 1
  15    9   11 1
  16    9   12 1
  17    9   31 1
  18   10   32 1
  19   11   24 1
  20   11   25 1
  21   11   26 1
  22   12   13 2
  23   12   22 am
  24   14   15 1
  25   14   33 1
  26   14   34 1
  27   15   16 1
  28   15   35 1
  29   15   36 1
  30   16   17 1
  31   16   37 1
  32   16   38 1
  33   17   18 1
  34   17   21 1
  35   18   39 1
  36   18   40 1
  37   19   20 ar
  38   19   41 1
  39   20   30 1
  40   20   23 ar
  41   21   42 1
  42   21   43 1
  43   21   44 1
  44   22   45 1
  45   22   46 1
  46   23   29 1
  47   23   28 ar
  48   24   47 1
  49   24   48 1
  50   24   49 1
  51   25   50 1
  52   25   51 1
  53   25   52 1
  54   26   53 1
  55   26   54 1
  56   26   55 1
  57   27   28 ar
  58   27   56 1
  59   28   57 1

#	End of record

