#	Name: ASD01881515
#	Creating user name:	WinNT
#	Creation time:	15. 06. 2019 19:42

#	Modifying user name:	WinNT
#	Modification time:	15. 06. 2019 19:42

#	Program:	/corina/corina34_cracker 3.40 0067  02.08.2006

@<TRIPOS>MOLECULE
ASD01881515
  55   58    0    0    0
SMALL
NO_CHARGES


@<TRIPOS>ATOM
   1 C1            -0.0096     1.3803     0.0722 C.ar    
   2 C2             0.0063    -0.0165     0.0764 C.ar    
   3 C3             1.2266    -0.6993     0.0853 C.ar    
   4 C4             2.4037     0.0059     0.0901 C.ar    
   5 C5             2.3928     1.4047     0.0860 C.ar    
   6 C6             1.1722     2.0856     0.0770 C.ar    
   7 C7             3.8541    -0.4089     0.0992 C.3     
   8 N8             4.6360     0.8326     0.0999 N.am    
   9 C9             3.7901     1.8770     0.0923 C.2     
  10 C10            6.0983     0.9196     0.1080 C.3     
  11 C11            6.5575     1.6737     1.3576 C.3     
  12 O12            4.1284     3.0446     0.0904 O.2     
  13 C13            1.1502     3.5924     0.0721 C.3     
  14 C14           -1.2642    -0.7712     0.0717 C.2     
  15 C15           -2.5278    -0.2487     0.0634 C.2     
  16 C16           -3.3676    -1.3931     0.0613 C.2     
  17 N17           -2.5714    -2.4341     0.0681 N.2     
  18 O18           -1.4073    -2.1084     0.0688 O.3     
  19 C19           -4.8510    -1.4078     0.0534 C.2     
  20 O20           -5.4693    -0.3665     0.1497 O.2     
  21 N21           -5.5126    -2.5764    -0.0606 N.am    
  22 C22           -6.9731    -2.6052     0.0511 C.3     
  23 C23           -4.7714    -3.8179    -0.2962 C.3     
  24 C24           -7.5730    -3.1535    -1.2451 C.3     
  25 C25           -7.3775    -3.5047     1.2208 C.3     
  26 C26            6.5718     1.6660    -1.1409 C.3     
  27 C27            8.0624     1.8709     1.5506 C.3     
  28 C28            7.1794     3.0574     1.1590 C.3     
  29 H29           -0.9518     1.9081     0.0608 H       
  30 H30            1.2426    -1.7792     0.0889 H       
  31 H31            4.0721    -0.9894     0.9956 H       
  32 H32            4.0819    -0.9945    -0.7915 H       
  33 H33            6.5220    -0.0846     0.1135 H       
  34 H34            5.9518     1.5172     2.2502 H       
  35 H35            1.1506     3.9524    -0.9568 H       
  36 H36            0.2521     3.9444     0.5797 H       
  37 H37            2.0319     3.9704     0.5896 H       
  38 H38           -2.8188     0.7914     0.0594 H       
  39 H39           -7.3442    -1.5951     0.2244 H       
  40 H40           -4.4218    -4.2185     0.6554 H       
  41 H41           -5.4247    -4.5451    -0.7784 H       
  42 H42           -3.9164    -3.6139    -0.9407 H       
  43 H43           -7.2019    -4.1637    -1.4184 H       
  44 H44           -8.6597    -3.1749    -1.1620 H       
  45 H45           -7.2849    -2.5127    -2.0784 H       
  46 H46           -6.9501    -3.1141     2.1443 H       
  47 H47           -8.4641    -3.5261     1.3039 H       
  48 H48           -7.0064    -4.5149     1.0475 H       
  49 H49            7.6599     1.7308    -1.1348 H       
  50 H50            6.2447     1.1288    -2.0311 H       
  51 H51            6.1481     2.6703    -1.1464 H       
  52 H52            8.4467     1.8445     2.5703 H       
  53 H53            8.7253     1.4634     0.7874 H       
  54 H54            7.2615     3.4305     0.1381 H       
  55 H55            6.9828     3.8116     1.9210 H       
@<TRIPOS>BOND
   1    1    2 ar
   2    1    6 ar
   3    1   29 1
   4    2    3 ar
   5    2   14 1
   6    3    4 ar
   7    3   30 1
   8    4    5 ar
   9    4    7 1
  10    5    6 ar
  11    5    9 1
  12    6   13 1
  13    7    8 1
  14    7   31 1
  15    7   32 1
  16    8    9 am
  17    8   10 1
  18    9   12 2
  19   10   11 1
  20   10   26 1
  21   10   33 1
  22   11   27 1
  23   11   28 1
  24   11   34 1
  25   13   35 1
  26   13   36 1
  27   13   37 1
  28   14   15 2
  29   14   18 1
  30   15   16 1
  31   15   38 1
  32   16   17 2
  33   16   19 1
  34   17   18 1
  35   19   20 2
  36   19   21 am
  37   21   22 1
  38   21   23 1
  39   22   24 1
  40   22   25 1
  41   22   39 1
  42   23   40 1
  43   23   41 1
  44   23   42 1
  45   24   43 1
  46   24   44 1
  47   24   45 1
  48   25   46 1
  49   25   47 1
  50   25   48 1
  51   26   49 1
  52   26   50 1
  53   26   51 1
  54   27   28 1
  55   27   52 1
  56   27   53 1
  57   28   54 1
  58   28   55 1

#	End of record

