#	Name: ASD01470025
#	Creating user name:	WinNT
#	Creation time:	15. 06. 2019 19:21

#	Modifying user name:	WinNT
#	Modification time:	15. 06. 2019 19:21

#	Program:	/corina/corina34_cracker 3.40 0067  02.08.2006

@<TRIPOS>MOLECULE
ASD01470025
  80   85    0    0    0
SMALL
NO_CHARGES


@<TRIPOS>ATOM
   1 N1            -1.6720     1.4806     0.5612 N.am    
   2 C2            -0.3386     1.0428     0.1574 C.3     
   3 C3             0.2197     0.0136     1.1503 C.3     
   4 C4            -0.2370    -1.3991     0.8204 C.3     
   5 C5            -1.6119    -1.4033     0.1726 C.3     
   6 N6            -2.5776    -0.6749     0.9963 N.am    
   7 C7            -2.6216     0.6689     0.9982 C.2     
   8 O8            -3.6322     1.1861     1.4334 O.2     
   9 C9            -3.5120    -1.4239     1.8401 C.3     
  10 C10           -1.9763     2.9115     0.4831 C.3     
  11 C11           -1.7056     3.5562     1.8181 C.ar    
  12 C12           -2.9422    -1.5522     3.2293 C.ar    
  13 C13           -3.0873    -0.5258     4.1168 C.ar    
  14 C14           -2.5581    -0.6462     5.4068 C.ar    
  15 C15           -1.8818    -1.8252     5.7750 C.ar    
  16 C16           -1.7497    -2.8561     4.8478 C.ar    
  17 C17           -2.2790    -2.7170     3.5963 C.ar    
  18 C18           -0.4255     3.9690     2.1387 C.ar    
  19 C19           -0.1728     4.5615     3.3626 C.ar    
  20 C20           -1.1989     4.7428     4.2687 C.ar    
  21 C21           -2.4863     4.3292     3.9497 C.ar    
  22 C22           -2.7376     3.7393     2.7177 C.ar    
  23 C23           -2.5287     0.2258     6.5764 C.2     
  24 N24           -1.8927    -0.4013     7.5243 N.2     
  25 N25           -1.4801    -1.6600     7.0747 N.pl3   
  26 C26           -0.4155     0.4107    -1.2338 C.3     
  27 O27            1.6475     0.0603     1.1136 O.3     
  28 C28            0.4319     1.2051    -2.1940 C.ar    
  29 C29            1.7349     0.8196    -2.4477 C.ar    
  30 C30            2.5122     1.5483    -3.3285 C.ar    
  31 C31            1.9863     2.6622    -3.9558 C.ar    
  32 C32            0.6830     3.0471    -3.7028 C.ar    
  33 C33           -0.0957     2.3159    -2.8254 C.ar    
  34 C34           -2.0840    -2.8486     0.0021 C.3     
  35 O35           -0.2857    -2.1672     2.0244 O.3     
  36 C36           -1.1682    -3.5666    -0.9554 C.ar    
  37 C37           -0.0237    -4.1836    -0.4860 C.ar    
  38 C38            0.8164    -4.8421    -1.3643 C.ar    
  39 C39            0.5118    -4.8840    -2.7120 C.ar    
  40 C40           -0.6331    -4.2678    -3.1813 C.ar    
  41 C41           -1.4755    -3.6130    -2.3024 C.ar    
  42 N42           -3.5264     4.5106     4.8641 N.pl3   
  43 C43           -3.2851     5.2365     6.1135 C.3     
  44 H44            0.3270     1.9052     0.1218 H       
  45 H45           -0.1192     0.2700     2.1541 H       
  46 H46            0.4799    -1.8548     0.1375 H       
  47 H47           -1.5482    -0.9314    -0.8078 H       
  48 H48           -4.4643    -0.8955     1.8854 H       
  49 H49           -3.6672    -2.4167     1.4179 H       
  50 H50           -1.3491     3.3753    -0.2782 H       
  51 H51           -3.0256     3.0461     0.2208 H       
  52 H52           -3.6073     0.3747     3.8252 H       
  53 H53           -1.2326    -3.7648     5.1188 H       
  54 H54           -2.1744    -3.5191     2.8808 H       
  55 H55            0.3789     3.8280     1.4320 H       
  56 H56            0.8283     4.8824     3.6100 H       
  57 H57           -1.0008     5.2052     5.2244 H       
  58 H58           -3.7372     3.4167     2.4666 H       
  59 H59           -2.9577     1.2146     6.6440 H       
  60 H60           -0.9888    -2.3116     7.5991 H       
  61 H61           -0.0484    -0.6146    -1.1879 H       
  62 H62           -1.4503     0.4111    -1.5764 H       
  63 H63            2.0770    -0.5629     1.7155 H       
  64 H64            2.1458    -0.0506    -1.9576 H       
  65 H65            3.5305     1.2476    -3.5261 H       
  66 H66            2.5938     3.2320    -4.6434 H       
  67 H67            0.2722     3.9176    -4.1927 H       
  68 H68           -1.1140     2.6166    -2.6277 H       
  69 H69           -2.0669    -3.3529     0.9683 H       
  70 H70           -3.0998    -2.8548    -0.3931 H       
  71 H71            0.5639    -2.2374     2.4808 H       
  72 H72            0.2143    -4.1508     0.5670 H       
  73 H73            1.7109    -5.3235    -0.9976 H       
  74 H74            1.1686    -5.3979    -3.3983 H       
  75 H75           -0.8709    -4.3003    -4.2343 H       
  76 H76           -2.3700    -3.1316    -2.6691 H       
  77 H77           -4.4086     4.1561     4.6718 H       
  78 H78           -4.1824     5.2044     6.7315 H       
  79 H79           -2.4578     4.7716     6.6498 H       
  80 H80           -3.0355     6.2735     5.8889 H       
@<TRIPOS>BOND
   1    1    2 1
   2    1   10 1
   3    1    7 am
   4    2    3 1
   5    2   26 1
   6    2   44 1
   7    3    4 1
   8    3   27 1
   9    3   45 1
  10    4    5 1
  11    4   35 1
  12    4   46 1
  13    5    6 1
  14    5   34 1
  15    5   47 1
  16    6    7 am
  17    6    9 1
  18    7    8 2
  19    9   12 1
  20    9   48 1
  21    9   49 1
  22   10   11 1
  23   10   50 1
  24   10   51 1
  25   11   18 ar
  26   11   22 ar
  27   12   13 ar
  28   12   17 ar
  29   13   14 ar
  30   13   52 1
  31   14   15 ar
  32   14   23 1
  33   15   16 ar
  34   15   25 1
  35   16   17 ar
  36   16   53 1
  37   17   54 1
  38   18   19 ar
  39   18   55 1
  40   19   20 ar
  41   19   56 1
  42   20   21 ar
  43   20   57 1
  44   21   22 ar
  45   21   42 1
  46   22   58 1
  47   23   24 2
  48   23   59 1
  49   24   25 1
  50   25   60 1
  51   26   28 1
  52   26   61 1
  53   26   62 1
  54   27   63 1
  55   28   29 ar
  56   28   33 ar
  57   29   30 ar
  58   29   64 1
  59   30   31 ar
  60   30   65 1
  61   31   32 ar
  62   31   66 1
  63   32   33 ar
  64   32   67 1
  65   33   68 1
  66   34   36 1
  67   34   69 1
  68   34   70 1
  69   35   71 1
  70   36   37 ar
  71   36   41 ar
  72   37   38 ar
  73   37   72 1
  74   38   39 ar
  75   38   73 1
  76   39   40 ar
  77   39   74 1
  78   40   41 ar
  79   40   75 1
  80   41   76 1
  81   42   43 1
  82   42   77 1
  83   43   78 1
  84   43   79 1
  85   43   80 1

#	End of record

