#	Name: ASD05143101
#	Creating user name:	WinNT
#	Creation time:	15. 06. 2019 20:57

#	Modifying user name:	WinNT
#	Modification time:	15. 06. 2019 20:57

#	Program:	/corina/corina34_cracker 3.40 0067  02.08.2006

@<TRIPOS>MOLECULE
ASD05143101
 145  148    0    0    0
SMALL
NO_CHARGES


@<TRIPOS>ATOM
   1 C1             0.8447     2.3032     2.2449 C.2     
   2 C2             1.0767     0.8506     2.5724 C.3     
   3 N3             1.8120     3.2108     2.4842 N.am    
   4 O4            -0.2105     2.6547     1.7613 O.2     
   5 C5             1.5864     4.6228     2.1658 C.3     
   6 C6             1.3041     4.7694     0.6692 C.3     
   7 C7             0.4061     5.1328     2.9519 C.2     
   8 C8             2.5483     4.3689    -0.1261 C.3     
   9 C9             2.2660     4.5154    -1.6227 C.3     
  10 N10            3.4573     4.1319    -2.3842 N.pl3   
  11 C11            3.4410     4.1831    -3.7580 C.2     
  12 N12            2.3067     4.5943    -4.4171 N.pl3   
  13 N13            4.5009     3.8419    -4.4355 N.2     
  14 O14           -0.4005     4.3515     3.4100 O.2     
  15 N15            0.2470     6.4570     3.1459 N.am    
  16 C16           -0.9004     6.9526     3.9101 C.3     
  17 C17           -0.5602     8.3168     4.5131 C.3     
  18 C18           -1.4516     8.5789     5.6994 C.2     
  19 N19           -0.9505     9.2603     6.7660 N.am    
  20 C20           -1.8734     9.4914     7.8950 C.3     
  21 C21           -1.7194    10.9374     8.3712 C.3     
  22 C22           -3.0828    11.6312     8.3441 C.3     
  23 C23           -3.0056    12.8735     7.4543 C.3     
  24 C24           -4.2382    13.7481     7.6919 C.3     
  25 N25           -4.3906    14.6776     6.5549 N.am    
  26 C26           -4.0618    14.5336     8.9659 C.2     
  27 N27           -4.2920    13.9463    10.1570 N.am    
  28 O28           -3.7127    15.6941     8.9194 O.2     
  29 C29           -5.3864    14.3982     5.6698 C.2     
  30 O30           -6.0977    13.4291     5.8307 O.2     
  31 C31           -5.5935    15.3095     4.4876 C.3     
  32 N32           -6.3264    14.5638     3.4388 N.am    
  33 C33           -6.4110    16.5296     4.9165 C.3     
  34 C34           -5.6180    14.3094     2.2989 C.2     
  35 O35           -4.4710    14.6873     2.1876 O.2     
  36 C36           -6.2871    13.5502     1.1821 C.3     
  37 N37           -5.2523    12.8427     0.4014 N.am    
  38 C38           -7.2701    12.5352     1.7690 C.3     
  39 C39           -5.4616    11.5171     0.1738 C.2     
  40 O40           -6.4602    10.9714     0.5934 O.2     
  41 C41           -4.4355    10.7370    -0.6071 C.3     
  42 C42           -6.5118    17.4968     3.7653 C.2     
  43 C43           -7.4962    17.4613     2.6811 C.ar    
  44 C44           -7.1976    18.5554     1.8490 C.ar    
  45 N45           -6.1112    19.1988     2.3981 N.pl3   
  46 C46           -5.7201    18.5576     3.5419 C.2     
  47 C47           -8.5641    16.6182     2.3671 C.ar    
  48 C48           -9.3146    16.8609     1.2515 C.ar    
  49 C49           -9.0237    17.9392     0.4268 C.ar    
  50 C50           -7.9754    18.7840     0.7183 C.ar    
  51 N51           -4.4167     9.3450    -0.1023 N.am    
  52 C52           -3.0557    11.3705    -0.4186 C.3     
  53 C53           -3.0617    12.7660    -0.9874 C.ar    
  54 C54           -2.8677    13.8513    -0.1514 C.ar    
  55 C55           -2.8716    15.1314    -0.6655 C.ar    
  56 C56           -3.0719    15.3305    -2.0330 C.ar    
  57 C57           -3.2671    14.2307    -2.8709 C.ar    
  58 C58           -3.2555    12.9557    -2.3442 C.ar    
  59 C59           -2.0911     7.0885     2.9967 C.2     
  60 O60           -3.2158     6.9482     3.4283 O.2     
  61 C61           -6.5324    11.6160     2.7445 C.3     
  62 C62           -7.5283    10.6459     3.3834 C.3     
  63 N63           -6.8219     9.7657     4.3175 N.pl3   
  64 C64           -7.5154     8.8049     5.0147 C.2     
  65 N65           -6.8525     7.9789     5.8913 N.pl3   
  66 N66           -8.8014     8.6772     4.8447 N.2     
  67 N67           -1.8876     7.3713     1.6807 N.am    
  68 C68           -3.0928     7.4786     0.8347 C.3     
  69 C69           -3.1965     8.8868     0.3079 C.2     
  70 O70           -2.2165     9.5988     0.2487 O.2     
  71 C71           -4.3338     7.1504     1.6671 C.3     
  72 C72           -4.2949     5.7007     2.0768 C.2     
  73 N73           -5.2924     5.1838     2.8214 N.am    
  74 C74           -3.0776    16.6565    -2.5735 C.1     
  75 N75           -3.0822    17.7085    -3.0023 N.1     
  76 O76           -3.3659     4.9991     1.7366 O.2     
  77 O77           -2.5999     8.1884     5.7038 O.2     
  78 H78            0.7559     0.6531     3.5952 H       
  79 H79            0.5045     0.2273     1.8853 H       
  80 H80            2.1377     0.6208     2.4736 H       
  81 H81            2.6574     2.9290     2.8672 H       
  82 H82            2.4734     5.2002     2.4265 H       
  83 H83            0.4717     4.1229     0.3915 H       
  84 H84            1.0491     5.8057     0.4474 H       
  85 H85            3.3808     5.0154     0.1516 H       
  86 H86            2.8033     3.3326     0.0958 H       
  87 H87            1.4335     3.8689    -1.9004 H       
  88 H88            2.0110     5.5517    -1.8445 H       
  89 H89            4.2576     3.8418    -1.9191 H       
  90 H90            1.5179     4.8482    -3.9129 H       
  91 H91            2.2951     4.6304    -5.3864 H       
  92 H92            4.4894     3.8780    -5.4048 H       
  93 H93            0.8922     7.0818     2.7795 H       
  94 H94           -1.1347     6.2503     4.7100 H       
  95 H95            0.4817     8.3228     4.8332 H       
  96 H96           -0.7145     9.0936     3.7642 H       
  97 H97           -0.0341     9.5781     6.7833 H       
  98 H98           -2.8994     9.3218     7.5686 H       
  99 H99           -1.6304     8.8105     8.7107 H       
 100 H100          -1.3280    10.9452     9.3885 H       
 101 H101          -1.0299    11.4654     7.7126 H       
 102 H102          -3.8314    10.9458     7.9468 H       
 103 H103          -3.3607    11.9259     9.3560 H       
 104 H104          -2.1062    13.4393     7.6974 H       
 105 H105          -2.9720    12.5695     6.4081 H       
 106 H106          -5.1239    13.1175     7.7693 H       
 107 H107          -3.8114    15.4477     6.4445 H       
 108 H108          -4.5712    13.0181    10.1942 H       
 109 H109          -4.1785    14.4519    10.9770 H       
 110 H110          -4.6269    15.6313     4.1000 H       
 111 H111          -7.2455    14.2757     3.5535 H       
 112 H112          -7.4106    16.2114     5.2124 H       
 113 H113          -5.9208    17.0174     5.7590 H       
 114 H114          -6.8205    14.2466     0.5352 H       
 115 H115          -4.4642    13.2993     0.0676 H       
 116 H116          -8.0648    13.0624     2.2969 H       
 117 H117          -7.7014    11.9398     0.9642 H       
 118 H118          -4.7008    10.7392    -1.6644 H       
 119 H119          -5.6884    19.9908     2.0309 H       
 120 H120          -4.8923    18.8562     4.1680 H       
 121 H121          -8.7958    15.7771     3.0037 H       
 122 H122         -10.1404    16.2086     1.0091 H       
 123 H123          -9.6258    18.1179    -0.4517 H       
 124 H124          -7.7573    19.6203     0.0706 H       
 125 H125          -5.2157     8.7963    -0.0649 H       
 126 H126          -2.8173    11.4124     0.6442 H       
 127 H127          -2.3067    10.7707    -0.9355 H       
 128 H128          -2.7133    13.6959     0.9061 H       
 129 H129          -2.7204    15.9777    -0.0118 H       
 130 H130          -3.4229    14.3776    -3.9294 H       
 131 H131          -3.4063    12.1042    -2.9911 H       
 132 H132          -5.7701    11.0523     2.2067 H       
 133 H133          -6.0597    12.2159     3.5222 H       
 134 H134          -8.2906    11.2096     3.9212 H       
 135 H135          -8.0010    10.0460     2.6057 H       
 136 H136          -5.8649     9.8608     4.4441 H       
 137 H137          -5.8955     8.0740     6.0179 H       
 138 H138          -7.3418     7.3010     6.3833 H       
 139 H139          -9.2907     7.9993     5.3366 H       
 140 H140          -0.9968     7.4962     1.3176 H       
 141 H141          -3.0162     6.7815     0.0002 H       
 142 H142          -4.3510     7.7792     2.5572 H       
 143 H143          -5.2290     7.3363     1.0736 H       
 144 H144          -6.0353     5.7449     3.0935 H       
 145 H145          -5.2673     4.2507     3.0851 H       
@<TRIPOS>BOND
   1    1    2 1
   2    1    3 am
   3    1    4 2
   4    2   78 1
   5    2   79 1
   6    2   80 1
   7    3    5 1
   8    3   81 1
   9    5    6 1
  10    5    7 1
  11    5   82 1
  12    6    8 1
  13    6   83 1
  14    6   84 1
  15    7   14 2
  16    7   15 am
  17    8    9 1
  18    8   85 1
  19    8   86 1
  20    9   10 1
  21    9   87 1
  22    9   88 1
  23   10   11 1
  24   10   89 1
  25   11   12 1
  26   11   13 2
  27   12   90 1
  28   12   91 1
  29   13   92 1
  30   15   16 1
  31   15   93 1
  32   16   17 1
  33   16   59 1
  34   16   94 1
  35   17   18 1
  36   17   95 1
  37   17   96 1
  38   18   19 am
  39   18   77 2
  40   19   20 1
  41   19   97 1
  42   20   21 1
  43   20   98 1
  44   20   99 1
  45   21   22 1
  46   21  100 1
  47   21  101 1
  48   22   23 1
  49   22  102 1
  50   22  103 1
  51   23   24 1
  52   23  104 1
  53   23  105 1
  54   24   25 1
  55   24   26 1
  56   24  106 1
  57   25   29 am
  58   25  107 1
  59   26   27 am
  60   26   28 2
  61   27  108 1
  62   27  109 1
  63   29   30 2
  64   29   31 1
  65   31   32 1
  66   31   33 1
  67   31  110 1
  68   32   34 am
  69   32  111 1
  70   33   42 1
  71   33  112 1
  72   33  113 1
  73   34   35 2
  74   34   36 1
  75   36   37 1
  76   36   38 1
  77   36  114 1
  78   37   39 am
  79   37  115 1
  80   38   61 1
  81   38  116 1
  82   38  117 1
  83   39   40 2
  84   39   41 1
  85   41   51 1
  86   41   52 1
  87   41  118 1
  88   42   43 1
  89   42   46 2
  90   43   44 ar
  91   43   47 ar
  92   44   45 1
  93   44   50 ar
  94   45   46 1
  95   45  119 1
  96   46  120 1
  97   47   48 ar
  98   47  121 1
  99   48   49 ar
 100   48  122 1
 101   49   50 ar
 102   49  123 1
 103   50  124 1
 104   51   69 am
 105   51  125 1
 106   52   53 1
 107   52  126 1
 108   52  127 1
 109   53   54 ar
 110   53   58 ar
 111   54   55 ar
 112   54  128 1
 113   55   56 ar
 114   55  129 1
 115   56   57 ar
 116   56   74 1
 117   57   58 ar
 118   57  130 1
 119   58  131 1
 120   59   60 2
 121   59   67 am
 122   61   62 1
 123   61  132 1
 124   61  133 1
 125   62   63 1
 126   62  134 1
 127   62  135 1
 128   63   64 1
 129   63  136 1
 130   64   65 1
 131   64   66 2
 132   65  137 1
 133   65  138 1
 134   66  139 1
 135   67   68 1
 136   67  140 1
 137   68   69 1
 138   68   71 1
 139   68  141 1
 140   69   70 2
 141   71   72 1
 142   71  142 1
 143   71  143 1
 144   72   73 am
 145   72   76 2
 146   73  144 1
 147   73  145 1
 148   74   75 3

#	End of record

