#	Name: ASD01915433
#	Creating user name:	WinNT
#	Creation time:	15. 06. 2019 20:05

#	Modifying user name:	WinNT
#	Modification time:	15. 06. 2019 20:05

#	Program:	/corina/corina34_cracker 3.40 0067  02.08.2006

@<TRIPOS>MOLECULE
ASD01915433
  45   49    0    0    0
SMALL
NO_CHARGES


@<TRIPOS>ATOM
   1 N1            -0.0169     1.3936     0.0097 N.pl3   
   2 N2             0.0021    -0.0041     0.0020 N.2     
   3 C3             1.2407    -0.4349    -0.0121 C.2     
   4 C4             2.1134     0.7408    -0.0141 C.ar    
   5 C5             1.2676     1.8669    -0.0000 C.ar    
   6 N6             1.7797     3.0923     0.0010 N.ar    
   7 C7             3.5085     0.9202    -0.0272 C.ar    
   8 C8             4.0015     2.2379    -0.0255 C.ar    
   9 C9             3.0832     3.3084    -0.0109 C.ar    
  10 C10            1.6770    -1.8517    -0.0235 C.ar    
  11 C11            0.9454    -2.8147     0.6700 C.ar    
  12 C12            1.3563    -4.1320     0.6559 C.ar    
  13 C13            2.4921    -4.4976    -0.0442 C.ar    
  14 C14            3.2223    -3.5463    -0.7337 C.ar    
  15 C15            2.8172    -2.2271    -0.7323 C.ar    
  16 C16            4.4275    -0.2392    -0.0417 C.ar    
  17 C17            5.2516    -0.4664    -1.1448 C.ar    
  18 C18            6.1067    -1.5490    -1.1519 C.ar    
  19 C19            6.1483    -2.4086    -0.0685 C.ar    
  20 C20            5.3335    -2.1892     1.0280 C.ar    
  21 C21            4.4782    -1.1070     1.0500 C.ar    
  22 C22            3.5892     4.7003    -0.0095 C.ar    
  23 C23            2.8928     5.6990    -0.6900 C.ar    
  24 C24            3.3687     6.9938    -0.6854 C.ar    
  25 C25            4.5358     7.3027    -0.0073 C.ar    
  26 C26            5.2315     6.3150     0.6696 C.ar    
  27 C27            4.7610     5.0183     0.6771 C.ar    
  28 C28            5.4114     2.4880    -0.0378 C.1     
  29 N29            6.5299     2.6863    -0.0476 N.1     
  30 Cl30           5.1294     8.9341    -0.0061 Cl      
  31 H31           -0.8163     1.9429     0.0166 H       
  32 H32            0.0589    -2.5303     1.2174 H       
  33 H33            0.7904    -4.8789     1.1927 H       
  34 H34            2.8101    -5.5297    -0.0521 H       
  35 H35            4.1085    -3.8373    -1.2780 H       
  36 H36            3.3851    -1.4861    -1.2752 H       
  37 H37            5.2198     0.2037    -1.9912 H       
  38 H38            6.7447    -1.7262    -2.0051 H       
  39 H39            6.8194    -3.2547    -0.0790 H       
  40 H40            5.3702    -2.8643     1.8702 H       
  41 H41            3.8459    -0.9343     1.9084 H       
  42 H42            1.9828     5.4590    -1.2198 H       
  43 H43            2.8303     7.7678    -1.2120 H       
  44 H44            6.1414     6.5614     1.1966 H       
  45 H45            5.3017     4.2497     1.2094 H       
@<TRIPOS>BOND
   1    1    2 1
   2    1    5 1
   3    1   31 1
   4    2    3 2
   5    3    4 1
   6    3   10 1
   7    4    7 ar
   8    4    5 ar
   9    5    6 ar
  10    6    9 ar
  11    7    8 ar
  12    7   16 1
  13    8    9 ar
  14    8   28 1
  15    9   22 1
  16   10   11 ar
  17   10   15 ar
  18   11   12 ar
  19   11   32 1
  20   12   13 ar
  21   12   33 1
  22   13   14 ar
  23   13   34 1
  24   14   15 ar
  25   14   35 1
  26   15   36 1
  27   16   17 ar
  28   16   21 ar
  29   17   18 ar
  30   17   37 1
  31   18   19 ar
  32   18   38 1
  33   19   20 ar
  34   19   39 1
  35   20   21 ar
  36   20   40 1
  37   21   41 1
  38   22   23 ar
  39   22   27 ar
  40   23   24 ar
  41   23   42 1
  42   24   25 ar
  43   24   43 1
  44   25   26 ar
  45   25   30 1
  46   26   27 ar
  47   26   44 1
  48   27   45 1
  49   28   29 3

#	End of record

