#	Name: ASD03731245
#	Creating user name:	WinNT
#	Creation time:	15. 06. 2019 20:45

#	Modifying user name:	WinNT
#	Modification time:	15. 06. 2019 20:45

#	Program:	/corina/corina34_cracker 3.40 0067  02.08.2006

@<TRIPOS>MOLECULE
ASD03731245
  60   65    0    0    0
SMALL
NO_CHARGES


@<TRIPOS>ATOM
   1 C1            -0.0137     1.4700     0.0432 C.2     
   2 C2             0.0052    -0.0042     0.0264 C.ar    
   3 C3            -0.8898    -0.7256     0.8223 C.ar    
   4 C4            -0.8696    -2.1017     0.8038 C.ar    
   5 C5             0.0404    -2.7750    -0.0054 C.ar    
   6 C6             0.9326    -2.0604    -0.7988 C.ar    
   7 C7             0.9143    -0.6842    -0.7897 C.ar    
   8 O8            -0.8078     2.0595     0.7492 O.2     
   9 O9             0.8533     2.1637    -0.7204 O.3     
  10 N10            0.0586    -4.1688    -0.0208 N.am    
  11 C11           -1.0939    -4.8591     0.0882 C.2     
  12 O12           -2.1391    -4.2699     0.2848 O.2     
  13 N13           -1.0877    -6.2024    -0.0206 N.am    
  14 C14           -2.3405    -6.9527     0.0979 C.3     
  15 C15           -2.0568    -8.4475    -0.0627 C.3     
  16 O16           -8.9694    -6.7707    -1.1093 O.3     
  17 C17          -10.3682    -7.1042    -1.1818 C.3     
  18 O18          -10.3790    -8.3999    -1.8095 O.3     
  19 C19           -9.1784    -8.9691    -1.4943 C.ar    
  20 C20           -8.3118    -7.9667    -1.0647 C.ar    
  21 C21           -8.7482   -10.2831    -1.5388 C.ar    
  22 C22           -7.4510   -10.6136    -1.1585 C.ar    
  23 C23           -6.5919    -9.6024    -0.7391 C.ar    
  24 C24           -7.0197    -8.2921    -0.6877 C.ar    
  25 O25           -6.8398   -11.8320    -1.1118 O.3     
  26 C26           -5.2745   -10.2606    -0.4276 C.3     
  27 C27           -5.4117   -11.6460    -1.0736 C.3     
  28 N28           -3.3095    -9.1978     0.0558 N.am    
  29 C29           -4.1103    -9.4948    -0.9871 C.2     
  30 C30           -5.0174   -10.3539     1.0472 C.ar    
  31 C31           -5.7010   -10.9239     2.0979 C.ar    
  32 C32           -5.1925   -10.8411     3.3819 C.ar    
  33 C33           -3.9966   -10.1839     3.6075 C.ar    
  34 C34           -3.3087    -9.6105     2.5585 C.ar    
  35 C35           -3.8129    -9.6893     1.2626 C.ar    
  36 O36           -3.9263    -9.2015    -2.1494 O.2     
  37 C37            0.7777     3.6122    -0.6537 C.3     
  38 H38           -1.5959    -0.2036     1.4512 H       
  39 H39           -1.5607    -2.6595     1.4184 H       
  40 H40            1.6378    -2.5863    -1.4254 H       
  41 H41            1.6043    -0.1301    -1.4089 H       
  42 H42            0.9007    -4.6419    -0.1101 H       
  43 H43           -0.2539    -6.6725    -0.1775 H       
  44 H44           -2.7821    -6.7699     1.0775 H       
  45 H45           -3.0329    -6.6287    -0.6790 H       
  46 H46           -1.6151    -8.6303    -1.0423 H       
  47 H47           -1.3643    -8.7715     0.7142 H       
  48 H48          -10.8012    -7.1588    -0.1830 H       
  49 H49          -10.9038    -6.3780    -1.7933 H       
  50 H50           -9.4235   -11.0576    -1.8711 H       
  51 H51           -6.3452    -7.5180    -0.3528 H       
  52 H52           -4.9383   -12.4096    -0.4564 H       
  53 H53           -4.9941   -11.6468    -2.0804 H       
  54 H54           -6.6348   -11.4364     1.9195 H       
  55 H55           -5.7279   -11.2888     4.2061 H       
  56 H56           -3.5997   -10.1192     4.6098 H       
  57 H57           -2.3757    -9.0985     2.7427 H       
  58 H58            1.5281     4.0459    -1.3146 H       
  59 H59           -0.2141     3.9390    -0.9662 H       
  60 H60            0.9623     3.9389     0.3696 H       
@<TRIPOS>BOND
   1    1    2 1
   2    1    8 2
   3    1    9 1
   4    2    3 ar
   5    2    7 ar
   6    3    4 ar
   7    3   38 1
   8    4    5 ar
   9    4   39 1
  10    5    6 ar
  11    5   10 1
  12    6    7 ar
  13    6   40 1
  14    7   41 1
  15    9   37 1
  16   10   11 am
  17   10   42 1
  18   11   12 2
  19   11   13 am
  20   13   14 1
  21   13   43 1
  22   14   15 1
  23   14   44 1
  24   14   45 1
  25   15   28 1
  26   15   46 1
  27   15   47 1
  28   16   17 1
  29   16   20 1
  30   17   18 1
  31   17   48 1
  32   17   49 1
  33   18   19 1
  34   19   20 ar
  35   19   21 ar
  36   20   24 ar
  37   21   22 ar
  38   21   50 1
  39   22   23 ar
  40   22   25 1
  41   23   24 ar
  42   23   26 1
  43   24   51 1
  44   25   27 1
  45   26   27 1
  46   26   29 1
  47   26   30 1
  48   27   52 1
  49   27   53 1
  50   28   29 am
  51   28   35 1
  52   29   36 2
  53   30   31 ar
  54   30   35 ar
  55   31   32 ar
  56   31   54 1
  57   32   33 ar
  58   32   55 1
  59   33   34 ar
  60   33   56 1
  61   34   35 ar
  62   34   57 1
  63   37   58 1
  64   37   59 1
  65   37   60 1

#	End of record

