#	Name: ASD04930021
#	Creating user name:	WinNT
#	Creation time:	15. 06. 2019 20:56

#	Modifying user name:	WinNT
#	Modification time:	15. 06. 2019 20:56

#	Program:	/corina/corina34_cracker 3.40 0067  02.08.2006

@<TRIPOS>MOLECULE
ASD04930021
  37   39    0    0    0
SMALL
NO_CHARGES


@<TRIPOS>ATOM
   1 C1            -0.6199     1.5067     2.1258 C.ar    
   2 C2            -0.4625     0.1416     1.9609 C.ar    
   3 C3            -1.4472    -0.6007     1.3370 C.ar    
   4 C4            -2.5946     0.0278     0.8765 C.ar    
   5 C5            -2.7502     1.4007     1.0456 C.ar    
   6 C6            -1.7683     2.1357     1.6724 C.ar    
   7 N7            -3.6062    -0.6965     0.2383 N.am    
   8 C8            -4.5489    -0.0419    -0.4698 C.2     
   9 O9            -4.5112     1.2986    -0.5926 O.3     
  10 C10           -4.0091     2.0593     0.5403 C.3     
  11 O11           -4.9908     2.0769     1.5786 O.3     
  12 O12           -5.4430    -0.6694    -1.0038 O.2     
  13 Cl13           0.6220     2.4326     2.9096 Cl      
  14 C14           -3.6392    -2.0611     0.3313 C.2     
  15 C15           -4.9605    -2.7769     0.4443 C.3     
  16 C16           -4.7140    -4.2703     0.6677 C.3     
  17 C17           -6.0555    -4.9971     0.7823 C.3     
  18 C18           -6.8445    -4.4282     1.9633 C.3     
  19 C19           -7.0910    -2.9348     1.7399 C.3     
  20 C20           -5.7495    -2.2080     1.6252 C.3     
  21 H21            0.4323    -0.3447     2.3204 H       
  22 H22           -1.3235    -1.6658     1.2081 H       
  23 H23           -1.8891     3.2011     1.8020 H       
  24 H24           -3.7874     3.0793     0.2264 H       
  25 H25           -5.8318     2.4768     1.3181 H       
  26 H26           -2.7183    -2.6252     0.3239 H       
  27 H27           -5.5297    -2.6361    -0.4746 H       
  28 H28           -4.1519    -4.6756    -0.1737 H       
  29 H29           -4.1448    -4.4111     1.5865 H       
  30 H30           -6.6247    -4.8563    -0.1365 H       
  31 H31           -5.8798    -6.0610     0.9415 H       
  32 H32           -7.8001    -4.9459     2.0449 H       
  33 H33           -6.2753    -4.5690     2.8821 H       
  34 H34           -7.6602    -2.7940     0.8210 H       
  35 H35           -7.6531    -2.5295     2.5812 H       
  36 H36           -5.1803    -2.3488     2.5441 H       
  37 H37           -5.9251    -1.1441     1.4661 H       
@<TRIPOS>BOND
   1    1    2 ar
   2    1   13 1
   3    1    6 ar
   4    2    3 ar
   5    2   21 1
   6    3    4 ar
   7    3   22 1
   8    4    5 ar
   9    4    7 1
  10    5    6 ar
  11    5   10 1
  12    6   23 1
  13    7    8 am
  14    7   14 1
  15    8    9 1
  16    8   12 2
  17    9   10 1
  18   10   11 1
  19   10   24 1
  20   11   25 1
  21   14   15 1
  22   14   26 1
  23   15   16 1
  24   15   20 1
  25   15   27 1
  26   16   17 1
  27   16   28 1
  28   16   29 1
  29   17   18 1
  30   17   30 1
  31   17   31 1
  32   18   19 1
  33   18   32 1
  34   18   33 1
  35   19   20 1
  36   19   34 1
  37   19   35 1
  38   20   36 1
  39   20   37 1

#	End of record

