#	Name: ASD02508349
#	Creating user name:	WinNT
#	Creation time:	15. 06. 2019 20:24

#	Modifying user name:	WinNT
#	Modification time:	15. 06. 2019 20:24

#	Program:	/corina/corina34_cracker 3.40 0067  02.08.2006

@<TRIPOS>MOLECULE
ASD02508349
  43   46    0    0    0
SMALL
NO_CHARGES


@<TRIPOS>ATOM
   1 C1            -0.0167     1.3816     0.0096 C.ar    
   2 C2             0.0021    -0.0041     0.0020 C.ar    
   3 C3            -1.2092    -0.6992     0.0103 C.ar    
   4 C4            -2.4067    -0.0124     0.0254 C.ar    
   5 C5            -2.4156     1.3725     0.0324 C.ar    
   6 C6            -1.2186     2.0677     0.0300 C.ar    
   7 S7            -3.9454     2.2466     0.0504 S.o2    
   8 O8            -3.6786     3.5335    -0.4899 O.2     
   9 O9            -4.9186     1.3633    -0.4898 O.2     
  10 C10           -4.3833     2.4968     1.7387 C.ar    
  11 C11           -3.9606     3.6346     2.3996 C.ar    
  12 C12           -4.3033     3.8338     3.7288 C.ar    
  13 C13           -5.0755     2.8881     4.3926 C.ar    
  14 C14           -5.4958     1.7481     3.7236 C.ar    
  15 C15           -5.1538     1.5574     2.3983 C.ar    
  16 O16           -3.8730     4.9553     4.3688 O.3     
  17 C17           -4.5464     5.3011     5.5841 C.3     
  18 C18           -4.6784     4.0331     6.4383 C.3     
  19 O19           -5.4297     3.0676     5.6944 O.3     
  20 S20            1.7091    -2.1075    -0.0261 S.o2    
  21 C21            1.8357    -2.5566     1.7269 C.3     
  22 O22            2.9884    -2.1430    -0.6436 O.2     
  23 O23            0.5889    -2.7450    -0.6244 O.2     
  24 C24            1.4103     1.8819    -0.0013 C.3     
  25 C25            2.2668     0.6052    -0.0163 C.3     
  26 N26            1.3062    -0.5013    -0.0131 N.am    
  27 F27           -1.2236     3.4186     0.0373 F       
  28 F28           -3.5735    -0.6934     0.0328 F       
  29 H29           -1.2091    -1.7792     0.0045 H       
  30 H30           -3.3626     4.3691     1.8807 H       
  31 H31           -6.0939     1.0104     4.2380 H       
  32 H32           -5.4821     0.6689     1.8793 H       
  33 H33           -3.9676     6.0499     6.1247 H       
  34 H34           -5.5367     5.6954     5.3561 H       
  35 H35           -3.6883     3.6356     6.6616 H       
  36 H36           -5.1988     4.2678     7.3668 H       
  37 H37            2.6044    -1.9481     2.2032 H       
  38 H38            0.8780    -2.3812     2.2170 H       
  39 H39            2.1008    -3.6103     1.8138 H       
  40 H40            1.5981     2.4764    -0.8954 H       
  41 H41            1.6152     2.4668     0.8954 H       
  42 H42            2.8795     0.5714    -0.9172 H       
  43 H43            2.8966     0.5618     0.8722 H       
@<TRIPOS>BOND
   1    1    2 ar
   2    1   24 1
   3    1    6 ar
   4    2    3 ar
   5    2   26 1
   6    3    4 ar
   7    3   29 1
   8    4    5 ar
   9    4   28 1
  10    5    6 ar
  11    5    7 1
  12    6   27 1
  13    7    8 2
  14    7    9 2
  15    7   10 1
  16   10   11 ar
  17   10   15 ar
  18   11   12 ar
  19   11   30 1
  20   12   13 ar
  21   12   16 1
  22   13   14 ar
  23   13   19 1
  24   14   15 ar
  25   14   31 1
  26   15   32 1
  27   16   17 1
  28   17   18 1
  29   17   33 1
  30   17   34 1
  31   18   19 1
  32   18   35 1
  33   18   36 1
  34   20   21 1
  35   20   22 2
  36   20   23 2
  37   20   26 am
  38   21   37 1
  39   21   38 1
  40   21   39 1
  41   24   25 1
  42   24   40 1
  43   24   41 1
  44   25   26 1
  45   25   42 1
  46   25   43 1

#	End of record

