#	Name: ASD04882413
#	Creating user name:	WinNT
#	Creation time:	15. 06. 2019 20:54

#	Modifying user name:	WinNT
#	Modification time:	15. 06. 2019 20:54

#	Program:	/corina/corina34_cracker 3.40 0067  02.08.2006

@<TRIPOS>MOLECULE
ASD04882413
  87   92    0    0    0
SMALL
NO_CHARGES


@<TRIPOS>ATOM
   1 C1            -0.0215     1.4012    -0.0092 C.ar    
   2 C2            -0.0115     0.0036    -0.0053 C.ar    
   3 C3            -1.2093    -0.7019    -0.0165 C.ar    
   4 C4            -2.4096    -0.0269    -0.0320 C.ar    
   5 C5            -2.4267     1.3707    -0.0364 C.ar    
   6 C6            -1.2239     2.0825    -0.0185 C.ar    
   7 N7             1.1998    -0.6830     0.0094 N.3     
   8 C8             1.3071    -1.5363     1.2011 C.3     
   9 C9             1.3723    -1.4731    -1.2176 C.3     
  10 C10            2.7461    -2.1473    -1.1982 C.3     
  11 N11            2.8534    -3.0005    -0.0065 N.3     
  12 C12            2.6809    -2.2105     1.2206 C.3     
  13 C13           -3.7126     2.0937    -0.0540 C.2     
  14 O14           -3.7265     3.3095    -0.0578 O.2     
  15 N15           -4.8719     1.4064    -0.0657 N.am    
  16 C16           -6.1489     2.1243    -0.0830 C.3     
  17 C17           -7.3003     1.1168    -0.0937 C.3     
  18 C18           -8.6138     1.8553    -0.1116 C.ar    
  19 N19            1.1866     2.1110     0.0021 N.am    
  20 C20            1.2296     3.3600     0.5068 C.2     
  21 O21            0.2069     3.8985     0.8853 O.2     
  22 C22            2.5162     4.0733     0.5999 C.2     
  23 N23            3.7329     3.5991     0.2178 N.2     
  24 C24            4.6245     4.5142     0.4546 C.2     
  25 O25            4.0246     5.5882     0.9871 O.3     
  26 C26            2.7098     5.3324     1.0790 C.2     
  27 C27            6.1000     4.3876     0.1756 C.3     
  28 C28            6.7251     5.3953    -0.7913 C.3     
  29 C29            7.0167     5.4910     0.7076 C.3     
  30 C30            4.0684    -3.6893     0.0082 C.ar    
  31 C31            5.2669    -2.9867     0.0190 C.ar    
  32 C32            4.0811    -5.0781     0.0179 C.ar    
  33 C33            5.2845    -5.7561     0.0325 C.ar    
  34 C34            6.4754    -5.0538     0.0379 C.ar    
  35 C35            6.4663    -3.6707     0.0336 C.ar    
  36 C36            2.7835    -5.8444     0.0131 C.3     
  37 C37           -9.2019     2.1903    -1.3166 C.ar    
  38 C38          -10.4070     2.8678    -1.3330 C.ar    
  39 C39          -11.0238     3.2098    -0.1443 C.ar    
  40 C40          -10.4359     2.8739     1.0611 C.ar    
  41 C41           -9.2334     2.1927     1.0775 C.ar    
  42 C42          -11.1082     3.2471     2.3571 C.3     
  43 N43          -12.0061     2.1616     2.7734 N.3     
  44 C44          -11.2467     0.9500     3.1099 C.3     
  45 C45          -12.8534     2.5811     3.8977 C.3     
  46 H46           -1.1986    -1.7819    -0.0134 H       
  47 H47           -3.3385    -0.5778    -0.0410 H       
  48 H48           -1.2340     3.1624    -0.0215 H       
  49 H49            1.1885    -0.9265     2.0968 H       
  50 H50            0.5283    -2.2984     1.1740 H       
  51 H51            0.5942    -2.2345    -1.2722 H       
  52 H52            1.3013    -0.8173    -2.0854 H       
  53 H53            2.8647    -2.7571    -2.0939 H       
  54 H54            3.5249    -1.3851    -1.1711 H       
  55 H55            3.4590    -1.4490     1.2752 H       
  56 H56            2.7519    -2.8663     2.0883 H       
  57 H57           -4.8608     0.4365    -0.0626 H       
  58 H58           -6.2244     2.7530     0.8042 H       
  59 H59           -6.2032     2.7476    -0.9756 H       
  60 H60           -7.2248     0.4881    -0.9809 H       
  61 H61           -7.2460     0.4936     0.7989 H       
  62 H62            1.9919     1.7035    -0.3534 H       
  63 H63            1.9512     5.9967     1.4659 H       
  64 H64            6.4908     3.3702     0.1643 H       
  65 H65            7.5274     5.0408    -1.4384 H       
  66 H66            6.0691     6.1497    -1.2255 H       
  67 H67            6.5526     6.3085     1.2595 H       
  68 H68            8.0109     5.1996     1.0466 H       
  69 H69            5.2605    -1.9067     0.0157 H       
  70 H70            5.2951    -6.8360     0.0400 H       
  71 H71            7.4149    -5.5863     0.0499 H       
  72 H72            7.3984    -3.1252     0.0378 H       
  73 H73            2.4787    -6.0363    -1.0157 H       
  74 H74            2.9192    -6.7919     0.5345 H       
  75 H75            2.0142    -5.2593     0.5169 H       
  76 H76           -8.7199     1.9231    -2.2454 H       
  77 H77          -10.8662     3.1302    -2.2747 H       
  78 H78          -11.9647     3.7396    -0.1572 H       
  79 H79           -8.7742     1.9303     2.0191 H       
  80 H80          -10.3520     3.4079     3.1255 H       
  81 H81          -11.6844     4.1618     2.2173 H       
  82 H82          -10.5590     1.1675     3.9272 H       
  83 H83          -11.9357     0.1622     3.4146 H       
  84 H84          -10.6818     0.6212     2.2375 H       
  85 H85          -13.4566     3.4381     3.5981 H       
  86 H86          -13.5083     1.7588     4.1858 H       
  87 H87          -12.2239     2.8577     4.7435 H       
@<TRIPOS>BOND
   1    1    2 ar
   2    1   19 1
   3    1    6 ar
   4    2    3 ar
   5    2    7 1
   6    3    4 ar
   7    3   46 1
   8    4    5 ar
   9    4   47 1
  10    5    6 ar
  11    5   13 1
  12    6   48 1
  13    7    8 1
  14    7    9 1
  15    8   12 1
  16    8   49 1
  17    8   50 1
  18    9   10 1
  19    9   51 1
  20    9   52 1
  21   10   11 1
  22   10   53 1
  23   10   54 1
  24   11   12 1
  25   11   30 1
  26   12   55 1
  27   12   56 1
  28   13   14 2
  29   13   15 am
  30   15   16 1
  31   15   57 1
  32   16   17 1
  33   16   58 1
  34   16   59 1
  35   17   18 1
  36   17   60 1
  37   17   61 1
  38   18   37 ar
  39   18   41 ar
  40   19   20 am
  41   19   62 1
  42   20   21 2
  43   20   22 1
  44   22   23 1
  45   22   26 2
  46   23   24 2
  47   24   25 1
  48   24   27 1
  49   25   26 1
  50   26   63 1
  51   27   28 1
  52   27   29 1
  53   27   64 1
  54   28   29 1
  55   28   65 1
  56   28   66 1
  57   29   67 1
  58   29   68 1
  59   30   31 ar
  60   30   32 ar
  61   31   35 ar
  62   31   69 1
  63   32   33 ar
  64   32   36 1
  65   33   34 ar
  66   33   70 1
  67   34   35 ar
  68   34   71 1
  69   35   72 1
  70   36   73 1
  71   36   74 1
  72   36   75 1
  73   37   38 ar
  74   37   76 1
  75   38   39 ar
  76   38   77 1
  77   39   40 ar
  78   39   78 1
  79   40   41 ar
  80   40   42 1
  81   41   79 1
  82   42   43 1
  83   42   80 1
  84   42   81 1
  85   43   44 1
  86   43   45 1
  87   44   82 1
  88   44   83 1
  89   44   84 1
  90   45   85 1
  91   45   86 1
  92   45   87 1

#	End of record

