#	Name: ASD01811580
#	Creating user name:	WinNT
#	Creation time:	15. 06. 2019 19:27

#	Modifying user name:	WinNT
#	Modification time:	15. 06. 2019 19:27

#	Program:	/corina/corina34_cracker 3.40 0067  02.08.2006

@<TRIPOS>MOLECULE
ASD01811580
  60   64    0    0    0
SMALL
NO_CHARGES


@<TRIPOS>ATOM
   1 C1            -7.8901     2.6086    -4.1205 C.1     
   2 C2            -6.8553     3.3343    -3.4473 C.ar    
   3 C3            -5.6985     2.6765    -3.0244 C.ar    
   4 C4            -4.7057     3.3818    -2.3765 C.ar    
   5 C5            -4.8544     4.7378    -2.1449 C.ar    
   6 C6            -5.9983     5.3958    -2.5609 C.ar    
   7 C7            -6.9960     4.7041    -3.2160 C.ar    
   8 N8            -8.7110     2.0328    -4.6546 N.1     
   9 N9            -2.6050     7.8352    -0.3377 N.am    
  10 C10           -2.1139     7.3641    -1.6398 C.3     
  11 C11           -3.2438     6.6122    -2.3503 C.3     
  12 C12           -3.7657     5.5014    -1.4360 C.3     
  13 C13           -4.3274     6.1168    -0.1523 C.3     
  14 C14           -3.2098     6.8630     0.5831 C.3     
  15 C15           -2.4976     9.1335     0.0079 C.2     
  16 C16           -3.0788     9.6101     1.2813 C.ar    
  17 C17           -3.9970    10.6627     1.2811 C.ar    
  18 C18           -4.5405    11.1080     2.4692 C.ar    
  19 C19           -4.1807    10.5168     3.6647 C.ar    
  20 C20           -3.2644     9.4645     3.6785 C.ar    
  21 C21           -2.7162     9.0066     2.4836 C.ar    
  22 O22           -1.9229     9.9125    -0.7271 O.2     
  23 C23           -2.8798     8.8325     4.9615 C.2     
  24 N24           -1.9020     7.8774     5.0561 N.pl3   
  25 C25           -1.7776     7.4734     6.4652 C.3     
  26 C26           -2.8478     8.3474     7.1764 C.3     
  27 N27           -3.4334     9.1386     6.0870 N.2     
  28 O28           -3.1606     6.0800     7.7918 O.3     
  29 C29           -2.3085     6.0327     6.6271 C.3     
  30 C30           -3.8870     7.3228     7.6810 C.3     
  31 C31           -4.7788    11.0099     4.9571 C.3     
  32 C32           -4.3947    11.3136    -0.0186 C.3     
  33 H33           -5.5815     1.6180    -3.2039 H       
  34 H34           -3.8104     2.8743    -2.0489 H       
  35 H35           -6.1081     6.4543    -2.3766 H       
  36 H36           -7.8863     5.2199    -3.5444 H       
  37 H37           -1.8058     8.2171    -2.2445 H       
  38 H38           -1.2668     6.6945    -1.4904 H       
  39 H39           -4.0535     7.3048    -2.5800 H       
  40 H40           -2.8652     6.1751    -3.2742 H       
  41 H41           -2.9497     4.8231    -1.1865 H       
  42 H42           -5.1269     6.8140    -0.4027 H       
  43 H43           -4.7202     5.3270     0.4881 H       
  44 H44           -2.4522     6.1526     0.9137 H       
  45 H45           -3.6249     7.3854     1.4450 H       
  46 H46           -5.2499    11.9224     2.4642 H       
  47 H47           -2.0100     8.1894     2.4888 H       
  48 H48           -1.3797     7.5263     4.3180 H       
  49 H49           -0.7726     7.6154     6.8626 H       
  50 H50           -2.4323     8.9683     7.9701 H       
  51 H51           -2.8833     5.7395     5.7485 H       
  52 H52           -1.4826     5.3403     6.7893 H       
  53 H53           -4.2742     7.6237     8.6545 H       
  54 H54           -4.7009     7.2233     6.9628 H       
  55 H55           -5.6250    10.3793     5.2298 H       
  56 H56           -4.0263    10.9688     5.7446 H       
  57 H57           -5.1176    12.0383     4.8316 H       
  58 H58           -5.1999    10.7417    -0.4799 H       
  59 H59           -4.7357    12.3308     0.1739 H       
  60 H60           -3.5363    11.3390    -0.6898 H       
@<TRIPOS>BOND
   1    1    2 1
   2    1    8 3
   3    2    3 ar
   4    2    7 ar
   5    3    4 ar
   6    3   33 1
   7    4    5 ar
   8    4   34 1
   9    5    6 ar
  10    5   12 1
  11    6    7 ar
  12    6   35 1
  13    7   36 1
  14    9   10 1
  15    9   14 1
  16    9   15 am
  17   10   11 1
  18   10   37 1
  19   10   38 1
  20   11   12 1
  21   11   39 1
  22   11   40 1
  23   12   13 1
  24   12   41 1
  25   13   14 1
  26   13   42 1
  27   13   43 1
  28   14   44 1
  29   14   45 1
  30   15   16 1
  31   15   22 2
  32   16   17 ar
  33   16   21 ar
  34   17   18 ar
  35   17   32 1
  36   18   19 ar
  37   18   46 1
  38   19   20 ar
  39   19   31 1
  40   20   21 ar
  41   20   23 1
  42   21   47 1
  43   23   24 1
  44   23   27 2
  45   24   25 1
  46   24   48 1
  47   25   26 1
  48   25   29 1
  49   25   49 1
  50   26   27 1
  51   26   30 1
  52   26   50 1
  53   28   29 1
  54   28   30 1
  55   29   51 1
  56   29   52 1
  57   30   53 1
  58   30   54 1
  59   31   55 1
  60   31   56 1
  61   31   57 1
  62   32   58 1
  63   32   59 1
  64   32   60 1

#	End of record

