#	Name: ASD02562008
#	Creating user name:	WinNT
#	Creation time:	15. 06. 2019 20:25

#	Modifying user name:	WinNT
#	Modification time:	15. 06. 2019 20:25

#	Program:	/corina/corina34_cracker 3.40 0067  02.08.2006

@<TRIPOS>MOLECULE
ASD02562008
  67   69    0    0    0
SMALL
NO_CHARGES


@<TRIPOS>ATOM
   1 C1            -0.0167     1.3835     0.0096 C.ar    
   2 C2             0.0021    -0.0041     0.0020 C.ar    
   3 C3            -1.1794    -0.7140     0.0100 C.ar    
   4 C4            -2.4037    -0.0428     0.0253 C.ar    
   5 C5            -2.4354     1.3471     0.0331 C.ar    
   6 C6            -1.2412     2.0671     0.0309 C.ar    
   7 C7             1.3186    -0.7372    -0.0155 C.3     
   8 C8            -1.2657     3.5425     0.0391 C.2     
   9 C9            -3.6709    -0.8128     0.0328 C.2     
  10 C10           -4.5972    -0.7274    -1.1219 C.ar    
  11 C11           -3.9786    -1.5850     1.0819 C.2     
  12 C12           -3.0372    -1.6718     2.2554 C.3     
  13 C13           -3.7880    -1.3125     3.5392 C.3     
  14 C14           -2.8322    -1.4006     4.7307 C.3     
  15 C15           -3.5718    -1.0467     5.9952 C.2     
  16 C16           -5.8619    -0.1660    -0.9614 C.ar    
  17 C17           -6.7211    -0.0897    -2.0435 C.ar    
  18 C18           -6.3225    -0.5731    -3.2908 C.ar    
  19 C19           -5.0623    -1.1326    -3.4461 C.ar    
  20 C20           -4.2010    -1.2042    -2.3722 C.ar    
  21 C21           -4.6316    -1.6551    -4.7924 C.3     
  22 O22           -7.3522    -0.3685    -4.1488 O.3     
  23 C23           -8.3650     0.2172    -3.4912 C.2     
  24 N24           -8.0165     0.4033    -2.2027 N.am    
  25 O25           -9.4320     0.5320    -3.9822 O.2     
  26 C26           -8.8461     1.0120    -1.1600 C.3     
  27 O27           -0.2230     4.1679     0.0372 O.2     
  28 N28           -2.4439     4.1968     0.0487 N.am    
  29 N29           -2.9266    -1.0567     7.1784 N.am    
  30 O30           -4.7475    -0.7530     5.9480 O.2     
  31 O31           -3.6215    -0.7242     8.3665 O.3     
  32 C32           -2.8152    -0.7758     9.5452 C.3     
  33 O33           -2.4675     5.6126     0.0566 O.3     
  34 C34           -3.7824     6.1720     0.0664 C.3     
  35 O35            1.1482     2.0780     0.0023 O.3     
  36 C36            1.6933     2.4171    -1.2745 C.3     
  37 H37           -1.1581    -1.7938     0.0040 H       
  38 H38           -3.3817     1.8675     0.0449 H       
  39 H39            1.6467    -0.9194     1.0078 H       
  40 H40            1.1978    -1.6887    -0.5332 H       
  41 H41            2.0637    -0.1336    -0.5338 H       
  42 H42           -4.9016    -2.1459     1.0873 H       
  43 H43           -2.6475    -2.6867     2.3344 H       
  44 H44           -2.2111    -0.9756     2.1108 H       
  45 H45           -4.1777    -0.2976     3.4603 H       
  46 H46           -4.6142    -2.0087     3.6839 H       
  47 H47           -2.4426    -2.4155     4.8096 H       
  48 H48           -2.0061    -0.7045     4.5860 H       
  49 H49           -6.1708     0.2078     0.0036 H       
  50 H50           -3.2207    -1.6403    -2.4962 H       
  51 H51           -4.1465    -0.8567    -5.3539 H       
  52 H52           -3.9320    -2.4797    -4.6553 H       
  53 H53           -5.5047    -2.0071    -5.3418 H       
  54 H54           -8.6709     2.0876    -1.1380 H       
  55 H55           -9.8975     0.8194    -1.3736 H       
  56 H56           -8.5872     0.5818    -0.1925 H       
  57 H57           -3.2758     3.6979     0.0503 H       
  58 H58           -1.9862    -1.2917     7.2161 H       
  59 H59           -2.4234    -1.7848     9.6735 H       
  60 H60           -1.9869    -0.0738     9.4499 H       
  61 H61           -3.4204    -0.5083    10.4114 H       
  62 H62           -4.3225     5.8463    -0.8226 H       
  63 H63           -4.3133     5.8365     0.9573 H       
  64 H64           -3.7144     7.2599     0.0720 H       
  65 H65            2.6228     2.9696    -1.1375 H       
  66 H66            1.8921     1.5056    -1.8383 H       
  67 H67            0.9807     3.0345    -1.8214 H       
@<TRIPOS>BOND
   1    1    2 ar
   2    1   35 1
   3    1    6 ar
   4    2    3 ar
   5    2    7 1
   6    3    4 ar
   7    3   37 1
   8    4    5 ar
   9    4    9 1
  10    5    6 ar
  11    5   38 1
  12    6    8 1
  13    7   39 1
  14    7   40 1
  15    7   41 1
  16    8   27 2
  17    8   28 am
  18    9   10 1
  19    9   11 2
  20   10   16 ar
  21   10   20 ar
  22   11   12 1
  23   11   42 1
  24   12   13 1
  25   12   43 1
  26   12   44 1
  27   13   14 1
  28   13   45 1
  29   13   46 1
  30   14   15 1
  31   14   47 1
  32   14   48 1
  33   15   29 am
  34   15   30 2
  35   16   17 ar
  36   16   49 1
  37   17   18 ar
  38   17   24 1
  39   18   19 ar
  40   18   22 1
  41   19   20 ar
  42   19   21 1
  43   20   50 1
  44   21   51 1
  45   21   52 1
  46   21   53 1
  47   22   23 1
  48   23   25 2
  49   23   24 am
  50   24   26 1
  51   26   54 1
  52   26   55 1
  53   26   56 1
  54   28   33 1
  55   28   57 1
  56   29   31 1
  57   29   58 1
  58   31   32 1
  59   32   59 1
  60   32   60 1
  61   32   61 1
  62   33   34 1
  63   34   62 1
  64   34   63 1
  65   34   64 1
  66   35   36 1
  67   36   65 1
  68   36   66 1
  69   36   67 1

#	End of record

