#	Name: ASD04590686
#	Creating user name:	WinNT
#	Creation time:	15. 06. 2019 20:51

#	Modifying user name:	WinNT
#	Modification time:	15. 06. 2019 20:51

#	Program:	/corina/corina34_cracker 3.40 0067  02.08.2006

@<TRIPOS>MOLECULE
ASD04590686
  61   66    0    0    0
SMALL
NO_CHARGES


@<TRIPOS>ATOM
   1 N1             0.0370     1.7001    -0.8301 N.ar    
   2 C2            -0.0161     0.3784    -0.9326 C.ar    
   3 N3             1.0624    -0.3824    -0.8426 N.ar    
   4 C4             2.2587     0.1620    -0.6431 C.ar    
   5 C5             2.3482     1.5626    -0.5306 C.ar    
   6 C6             1.1881     2.3220    -0.6312 C.ar    
   7 N7             3.5244    -0.3565    -0.5106 N.pl3   
   8 C8             4.4393     0.6428    -0.3162 C.2     
   9 C9             3.7729     1.8653    -0.3178 C.2     
  10 N10           -1.2459    -0.2271    -1.1409 N.pl3   
  11 C11           -2.4116     0.5384    -1.1255 C.ar    
  12 C12            3.8500    -1.7837    -0.5689 C.3     
  13 C13            2.5577    -2.6189    -0.5813 C.3     
  14 N14            5.7946     0.6149    -0.1369 N.am    
  15 C15            6.4908     1.7523     0.0381 C.2     
  16 C16            5.8445     2.9973     0.0413 C.2     
  17 C17            4.4932     3.0574    -0.1357 C.2     
  18 C18            2.5612    -3.4165    -1.9018 C.3     
  19 C19            4.0577    -3.4967    -2.2931 C.3     
  20 C20            4.5936    -2.1028    -1.8822 C.3     
  21 N21           -2.3480     1.8204    -0.8042 N.ar    
  22 C22           -3.4249     2.5827    -0.7765 C.ar    
  23 C23           -4.6715     2.0601    -1.0859 C.ar    
  24 C24           -4.7777     0.7131    -1.4293 C.ar    
  25 C25           -3.6268    -0.0531    -1.4535 C.ar    
  26 N26           -5.8094     2.8750    -1.0535 N.3     
  27 C27           -5.4619     4.2498    -0.6676 C.3     
  28 C28           -6.7166     5.1245    -0.7211 C.3     
  29 N29           -7.7363     4.5695     0.1800 N.3     
  30 C30           -8.0839     3.1948    -0.2059 C.3     
  31 C31           -6.8291     2.3200    -0.1524 C.3     
  32 O32            7.7000     1.7005     0.1966 O.2     
  33 C33            6.4974    -0.6706    -0.1349 C.3     
  34 H34            1.2256     3.3982    -0.5492 H       
  35 H35           -1.2955    -1.1831    -1.2974 H       
  36 H36            4.4657    -2.0612     0.2866 H       
  37 H37            2.5467    -3.3024     0.2677 H       
  38 H38            1.6884    -1.9625    -0.5440 H       
  39 H39            6.4140     3.9040     0.1831 H       
  40 H40            3.9835     4.0095    -0.1355 H       
  41 H41            2.1538    -4.4153    -1.7453 H       
  42 H42            1.9943    -2.8881    -2.6682 H       
  43 H43            4.5617    -4.2847    -1.7334 H       
  44 H44            4.1686    -3.6523    -3.3663 H       
  45 H45            4.3549    -1.3622    -2.6455 H       
  46 H46            5.6694    -2.1429    -1.7114 H       
  47 H47           -3.3343     3.6252    -0.5095 H       
  48 H48           -5.7358     0.2793    -1.6749 H       
  49 H49           -3.6722    -1.0998    -1.7154 H       
  50 H50           -5.0596     4.2525     0.3455 H       
  51 H51           -4.7147     4.6431    -1.3569 H       
  52 H52           -6.4670     6.1381    -0.4073 H       
  53 H53           -7.1033     5.1438    -1.7400 H       
  54 H54           -7.4301     4.6090     1.1406 H       
  55 H55           -8.8310     2.8015     0.4834 H       
  56 H56           -8.4861     3.1921    -1.2190 H       
  57 H57           -7.0788     1.3065    -0.4662 H       
  58 H58           -6.4424     2.3008     0.8665 H       
  59 H59            6.7185    -0.9653    -1.1608 H       
  60 H60            7.4281    -0.5749     0.4243 H       
  61 H61            5.8684    -1.4278     0.3331 H       
@<TRIPOS>BOND
   1    1    2 ar
   2    1    6 ar
   3    2    3 ar
   4    2   10 1
   5    3    4 ar
   6    4    5 ar
   7    4    7 1
   8    5    6 ar
   9    5    9 1
  10    6   34 1
  11    7    8 1
  12    7   12 1
  13    8    9 2
  14    8   14 1
  15    9   17 1
  16   10   11 1
  17   10   35 1
  18   11   21 ar
  19   11   25 ar
  20   12   13 1
  21   12   20 1
  22   12   36 1
  23   13   18 1
  24   13   37 1
  25   13   38 1
  26   14   15 am
  27   14   33 1
  28   15   16 1
  29   15   32 2
  30   16   17 2
  31   16   39 1
  32   17   40 1
  33   18   19 1
  34   18   41 1
  35   18   42 1
  36   19   20 1
  37   19   43 1
  38   19   44 1
  39   20   45 1
  40   20   46 1
  41   21   22 ar
  42   22   23 ar
  43   22   47 1
  44   23   24 ar
  45   23   26 1
  46   24   25 ar
  47   24   48 1
  48   25   49 1
  49   26   27 1
  50   26   31 1
  51   27   28 1
  52   27   50 1
  53   27   51 1
  54   28   29 1
  55   28   52 1
  56   28   53 1
  57   29   30 1
  58   29   54 1
  59   30   31 1
  60   30   55 1
  61   30   56 1
  62   31   57 1
  63   31   58 1
  64   33   59 1
  65   33   60 1
  66   33   61 1

#	End of record

