#	Name: ASD03080185
#	Creating user name:	WinNT
#	Creation time:	15. 06. 2019 20:26

#	Modifying user name:	WinNT
#	Modification time:	15. 06. 2019 20:26

#	Program:	/corina/corina34_cracker 3.40 0067  02.08.2006

@<TRIPOS>MOLECULE
ASD03080185
  41   43    0    0    0
SMALL
NO_CHARGES


@<TRIPOS>ATOM
   1 C1            -0.0168     1.3843     0.0097 C.ar    
   2 C2             0.0021    -0.0041     0.0020 C.ar    
   3 C3             1.2232    -0.6647    -0.0132 C.ar    
   4 C4             2.3917     0.1041    -0.0202 C.ar    
   5 C5             2.2849     1.4951    -0.0117 C.ar    
   6 N6             1.1042     2.0785     0.0027 N.ar    
   7 C7             3.7188    -0.5470    -0.0358 C.2     
   8 C8             4.8195     0.1917    -0.0424 C.2     
   9 N9             9.0502    -0.2367    -0.0880 N.3     
  10 C10            8.3330    -0.6719    -1.2933 C.3     
  11 C11            6.9379    -0.0433    -1.3132 C.3     
  12 C12            6.1723    -0.4721    -0.0583 C.3     
  13 C13            6.9642    -0.0497     1.1823 C.3     
  14 C14            8.3586    -0.6781     1.1298 C.3     
  15 O15           -1.1607    -0.7078     0.0098 O.3     
  16 C16           -2.3749     0.0455     0.0258 C.3     
  17 C17           -3.5687    -0.9114     0.0325 C.3     
  18 C18           -4.9642    -0.2989     0.1679 C.3     
  19 C19           -4.5091    -0.8762    -1.1739 C.3     
  20 H20           -0.9638     1.9033     0.0169 H       
  21 H21            1.2696    -1.7437    -0.0191 H       
  22 H22            3.1797     2.0998    -0.0170 H       
  23 H23            3.7916    -1.6246    -0.0420 H       
  24 H24            4.7467     1.2692    -0.0362 H       
  25 H25           10.0057    -0.5610    -0.0989 H       
  26 H26            8.8858    -0.3571    -2.1784 H       
  27 H27            8.2420    -1.7581    -1.2895 H       
  28 H28            7.0283     1.0428    -1.3310 H       
  29 H29            6.4001    -0.3789    -2.1999 H       
  30 H30            6.0468    -1.5548    -0.0604 H       
  31 H31            7.0550     1.0363     1.2038 H       
  32 H32            6.4452    -0.3899     2.0785 H       
  33 H33            8.2674    -1.7643     1.1223 H       
  34 H34            8.9299    -0.3678     2.0047 H       
  35 H35           -2.4039     0.6689     0.9195 H       
  36 H36           -2.4215     0.6785    -0.8603 H       
  37 H37           -3.3946    -1.8769     0.5074 H       
  38 H38           -5.7083    -0.8617     0.7315 H       
  39 H39           -5.0318     0.7857     0.2523 H       
  40 H40           -4.2772    -0.1713    -1.9723 H       
  41 H41           -4.9537    -1.8188    -1.4930 H       
@<TRIPOS>BOND
   1    1    2 ar
   2    1    6 ar
   3    1   20 1
   4    2    3 ar
   5    2   15 1
   6    3    4 ar
   7    3   21 1
   8    4    5 ar
   9    4    7 1
  10    5    6 ar
  11    5   22 1
  12    7    8 2
  13    7   23 1
  14    8   12 1
  15    8   24 1
  16    9   10 1
  17    9   14 1
  18    9   25 1
  19   10   11 1
  20   10   26 1
  21   10   27 1
  22   11   12 1
  23   11   28 1
  24   11   29 1
  25   12   13 1
  26   12   30 1
  27   13   14 1
  28   13   31 1
  29   13   32 1
  30   14   33 1
  31   14   34 1
  32   15   16 1
  33   16   17 1
  34   16   35 1
  35   16   36 1
  36   17   18 1
  37   17   19 1
  38   17   37 1
  39   18   19 1
  40   18   38 1
  41   18   39 1
  42   19   40 1
  43   19   41 1

#	End of record

