#	Name: ASD02198046
#	Creating user name:	WinNT
#	Creation time:	15. 06. 2019 20:18

#	Modifying user name:	WinNT
#	Modification time:	15. 06. 2019 20:18

#	Program:	/corina/corina34_cracker 3.40 0067  02.08.2006

@<TRIPOS>MOLECULE
ASD02198046
  47   49    0    0    0
SMALL
NO_CHARGES


@<TRIPOS>ATOM
   1 C1            -0.0187     1.3477    -0.2631 C.2     
   2 C2             0.0073    -0.0300    -0.2121 C.2     
   3 C3            -1.1767    -0.8348    -0.2432 C.1     
   4 S4             1.5603     1.9881    -0.2060 S.3     
   5 C5             2.2770     0.3874    -0.1119 C.2     
   6 C6             1.2898    -0.5684    -0.1275 C.2     
   7 C7             3.6583     0.1228    -0.0326 C.2     
   8 O8             4.0519    -1.0200     0.1308 O.2     
   9 C9             4.6305     1.2297    -0.1475 C.ar    
  10 N10            1.5439    -1.9299    -0.0648 N.pl3   
  11 N11           -1.1642     2.1034    -0.3538 N.pl3   
  12 N12           -2.1160    -1.4733    -0.2678 N.1     
  13 C13           -1.0756     3.5650    -0.4015 C.3     
  14 C14           -0.9090     4.0369    -1.8607 C.3     
  15 C15            5.2814     1.7121     0.9893 C.ar    
  16 C16            6.1906     2.7482     0.8745 C.ar    
  17 C17            6.4570     3.3089    -0.3680 C.ar    
  18 C18            5.8170     2.8371    -1.4974 C.ar    
  19 C19            4.9076     1.7960    -1.3983 C.ar    
  20 O20            6.8251     3.2193     1.9812 O.3     
  21 C21            7.7515     4.2906     1.7912 C.3     
  22 O22            4.2791     1.3331    -2.5094 O.3     
  23 C23            4.6029     1.9659    -3.7490 C.3     
  24 C24           -2.3834     4.1894     0.1158 C.3     
  25 C25           -2.9657     5.0191    -1.0471 C.3     
  26 C26           -2.3492     4.3796    -2.3160 C.3     
  27 H27            2.4575    -2.2506    -0.0063 H       
  28 H28            0.8081    -2.5618    -0.0794 H       
  29 H29           -2.0307     1.6687    -0.3862 H       
  30 H30           -0.2343     3.9076     0.2009 H       
  31 H31           -0.2741     4.9218    -1.9053 H       
  32 H32           -0.4946     3.2377    -2.4752 H       
  33 H33            5.0753     1.2775     1.9562 H       
  34 H34            7.1676     4.1179    -0.4513 H       
  35 H35            6.0289     3.2777    -2.4604 H       
  36 H36            8.1857     4.5700     2.7512 H       
  37 H37            8.5432     3.9704     1.1138 H       
  38 H38            7.2324     5.1484     1.3637 H       
  39 H39            4.0327     1.5017    -4.5537 H       
  40 H40            4.3542     3.0256    -3.6919 H       
  41 H41            5.6688     1.8530    -3.9471 H       
  42 H42           -3.0839     3.4051     0.4024 H       
  43 H43           -2.1766     4.8358     0.9688 H       
  44 H44           -4.0524     4.9366    -1.0678 H       
  45 H45           -2.6630     6.0626    -0.9603 H       
  46 H46           -2.3345     5.0930    -3.1399 H       
  47 H47           -2.8912     3.4762    -2.5955 H       
@<TRIPOS>BOND
   1    1    2 2
   2    1    4 1
   3    1   11 1
   4    2    3 1
   5    2    6 1
   6    3   12 3
   7    4    5 1
   8    5    6 2
   9    5    7 1
  10    6   10 1
  11    7    8 2
  12    7    9 1
  13    9   15 ar
  14    9   19 ar
  15   10   27 1
  16   10   28 1
  17   11   13 1
  18   11   29 1
  19   13   24 1
  20   13   14 1
  21   13   30 1
  22   14   26 1
  23   14   31 1
  24   14   32 1
  25   15   16 ar
  26   15   33 1
  27   16   17 ar
  28   16   20 1
  29   17   18 ar
  30   17   34 1
  31   18   19 ar
  32   18   35 1
  33   19   22 1
  34   20   21 1
  35   21   36 1
  36   21   37 1
  37   21   38 1
  38   22   23 1
  39   23   39 1
  40   23   40 1
  41   23   41 1
  42   24   25 1
  43   24   42 1
  44   24   43 1
  45   25   26 1
  46   25   44 1
  47   25   45 1
  48   26   46 1
  49   26   47 1

#	End of record

