#	Name: ASD05740019
#	Creating user name:	WinNT
#	Creation time:	15. 06. 2019 21:02

#	Modifying user name:	WinNT
#	Modification time:	15. 06. 2019 21:02

#	Program:	/corina/corina34_cracker 3.40 0067  02.08.2006

@<TRIPOS>MOLECULE
ASD05740019
  47   50    0    0    0
SMALL
NO_CHARGES


@<TRIPOS>ATOM
   1 C1             0.9018     1.5057    -0.4194 C.3     
   2 C2             6.6066     5.0538    10.1719 C.2     
   3 C3             4.8192     4.4367     8.2453 C.ar    
   4 C4             3.5142     4.4430     8.7418 C.ar    
   5 C5             2.6431     3.4493     8.4056 C.ar    
   6 C6             3.0590     2.4162     7.5563 C.ar    
   7 C7             4.3735     2.4035     7.0519 C.ar    
   8 C8             5.2456     3.4229     7.3983 C.ar    
   9 C9             2.1447     1.3376     7.1791 C.2     
  10 C10            2.6074     0.3631     6.3520 C.2     
  11 C11            3.9358     0.4129     5.8841 C.2     
  12 O12            4.7700     1.4047     6.2340 O.3     
  13 C13            1.7022    -0.7680     5.9368 C.3     
  14 C14            1.0683    -0.4425     4.6089 C.ar    
  15 C15           -0.1904     0.1415     4.5467 C.ar    
  16 O16            4.3374    -0.4668     5.1434 O.2     
  17 C17            1.1102    -0.3988     2.2154 C.ar    
  18 N18           -0.0925     0.1530     2.1998 N.ar    
  19 C19           -0.7431     0.4276     3.3152 C.ar    
  20 S20            5.9308     5.7290     8.6913 S.3     
  21 N21            1.7600    -0.6707     1.0155 N.am    
  22 S22            1.0282    -0.3039    -0.4241 S.o2    
  23 O23           -0.2605    -0.8940    -0.3224 O.2     
  24 O24            1.9563    -0.7364    -1.4093 O.2     
  25 C25            0.7287     1.3077     7.6940 C.3     
  26 N26            6.2132     3.9525    10.7338 N.2     
  27 S27            7.8813     5.7505    11.0734 S.3     
  28 C28            7.7962     4.4292    12.2354 C.2     
  29 C29            6.8366     3.5911    11.8401 C.2     
  30 C30            1.7294    -0.7144     3.4232 C.ar    
  31 F31            2.9577    -1.2768     3.4370 F       
  32 H32            1.8992     1.9394    -0.3479 H       
  33 H33            0.4259     1.8390    -1.3417 H       
  34 H34            0.3043     1.8260     0.4341 H       
  35 H35            3.1929     5.2396     9.3965 H       
  36 H36            1.6351     3.4589     8.7932 H       
  37 H37            6.2564     3.4241     7.0178 H       
  38 H38            2.2845    -1.6849     5.8464 H       
  39 H39            0.9236    -0.9045     6.6873 H       
  40 H40           -0.7314     0.3691     5.4533 H       
  41 H41           -1.7215     0.8820     3.2630 H       
  42 H42            2.6417    -1.0751     1.0221 H       
  43 H43            0.5577     2.1711     8.3370 H       
  44 H44            0.0357     1.3379     6.8532 H       
  45 H45            0.5687     0.3926     8.2641 H       
  46 H46            8.4177     4.3138    13.1111 H       
  47 H47            6.5837     2.6943    12.3861 H       
@<TRIPOS>BOND
   1    1   22 1
   2    1   32 1
   3    1   33 1
   4    1   34 1
   5    2   27 1
   6    2   20 1
   7    2   26 2
   8    3    4 ar
   9    3   20 1
  10    3    8 ar
  11    4    5 ar
  12    4   35 1
  13    5    6 ar
  14    5   36 1
  15    6    7 ar
  16    6    9 1
  17    7    8 ar
  18    7   12 1
  19    8   37 1
  20    9   10 2
  21    9   25 1
  22   10   11 1
  23   10   13 1
  24   11   12 1
  25   11   16 2
  26   13   14 1
  27   13   38 1
  28   13   39 1
  29   14   15 ar
  30   14   30 ar
  31   15   19 ar
  32   15   40 1
  33   17   18 ar
  34   17   21 1
  35   17   30 ar
  36   18   19 ar
  37   19   41 1
  38   21   22 am
  39   21   42 1
  40   22   23 2
  41   22   24 2
  42   25   43 1
  43   25   44 1
  44   25   45 1
  45   26   29 1
  46   27   28 1
  47   28   29 2
  48   28   46 1
  49   29   47 1
  50   30   31 1

#	End of record

