#	Name: ASD01883674
#	Creating user name:	WinNT
#	Creation time:	15. 06. 2019 19:46

#	Modifying user name:	WinNT
#	Modification time:	15. 06. 2019 19:46

#	Program:	/corina/corina34_cracker 3.40 0067  02.08.2006

@<TRIPOS>MOLECULE
ASD01883674
  57   60    0    0    0
SMALL
NO_CHARGES


@<TRIPOS>ATOM
   1 C1            -0.7981    -0.6642    -2.2805 C.2     
   2 C2            -0.4272    -1.2560    -1.0668 C.2     
   3 C3            -1.3943    -1.4049    -0.0554 C.2     
   4 C4            -2.6613    -0.9888    -0.2396 C.2     
   5 N5            -3.0673    -0.4076    -1.4051 N.pl3   
   6 C6            -2.1855    -0.2198    -2.4378 C.2     
   7 C7            -4.2786     0.0868    -1.8223 C.2     
   8 C8            -4.1082     0.5489    -3.0775 C.2     
   9 N9            -2.8327     0.3558    -3.4345 N.2     
  10 N10            0.8705    -1.6883    -0.8653 N.pl3   
  11 C11            1.1603    -3.1128    -0.6519 C.3     
  12 C12            1.9660    -3.2636     0.6422 C.3     
  13 C13            3.2086    -2.3731     0.5716 C.3     
  14 C14            2.7823    -0.9095     0.4357 C.3     
  15 C15            1.9865    -0.7328    -0.8664 C.3     
  16 C16           -5.5583     0.1083    -1.0268 C.3     
  17 C17           -6.3976    -1.1219    -1.3776 C.3     
  18 F18           -5.6770    -2.2811    -1.0705 F       
  19 F19           -7.5857    -1.1020    -0.6391 F       
  20 F20           -6.6976    -1.1077    -2.7440 F       
  21 C21            4.0214    -2.5447     1.8289 C.ar    
  22 C22            5.2849    -3.1013     1.7645 C.ar    
  23 C23            6.0305    -3.2588     2.9180 C.ar    
  24 C24            5.5127    -2.8591     4.1356 C.ar    
  25 C25            4.2492    -2.3015     4.1999 C.ar    
  26 C26            3.5055    -2.1401     3.0462 C.ar    
  27 C27            5.8494    -3.5371     0.4369 C.3     
  28 C28            4.9390    -4.6008    -0.1801 C.3     
  29 C29            5.9343    -2.3317    -0.5016 C.3     
  30 O30            7.1559    -4.0826     0.6309 O.3     
  31 C31            0.1537    -0.4926    -3.3366 C.1     
  32 N32            0.9087    -0.3564    -4.1744 N.1     
  33 H33           -1.1156    -1.8604     0.8834 H       
  34 H34           -3.3773    -1.1193     0.5584 H       
  35 H35           -4.8726     1.0023    -3.6912 H       
  36 H36            0.2256    -3.6672    -0.5672 H       
  37 H37            1.7408    -3.4972    -1.4906 H       
  38 H38            1.3511    -2.9635     1.4907 H       
  39 H39            2.2700    -4.3035     0.7624 H       
  40 H40            3.8106    -2.6576    -0.2914 H       
  41 H41            2.1597    -0.6315     1.2861 H       
  42 H42            3.6674    -0.2738     0.4090 H       
  43 H43            2.6365    -0.9228    -1.7205 H       
  44 H44            1.5959     0.2834    -0.9208 H       
  45 H45           -5.3246     0.0972     0.0377 H       
  46 H46           -6.1198     1.0114    -1.2662 H       
  47 H47            7.0175    -3.6944     2.8677 H       
  48 H48            6.0949    -2.9828     5.0368 H       
  49 H49            3.8445    -1.9895     5.1514 H       
  50 H50            2.5186    -1.7045     3.0964 H       
  51 H51            3.9594    -4.1677    -0.3821 H       
  52 H52            5.3775    -4.9582    -1.1118 H       
  53 H53            4.8317    -5.4342     0.5142 H       
  54 H54            6.7847    -1.7109    -0.2197 H       
  55 H55            6.0614    -2.6781    -1.5273 H       
  56 H56            5.0171    -1.7475    -0.4264 H       
  57 H57            7.1780    -4.8517     1.2166 H       
@<TRIPOS>BOND
   1    1    2 2
   2    1   31 1
   3    1    6 1
   4    2    3 1
   5    2   10 1
   6    3    4 2
   7    3   33 1
   8    4    5 1
   9    4   34 1
  10    5    6 1
  11    5    7 1
  12    6    9 2
  13    7    8 2
  14    7   16 1
  15    8    9 1
  16    8   35 1
  17   10   11 1
  18   10   15 1
  19   11   12 1
  20   11   36 1
  21   11   37 1
  22   12   13 1
  23   12   38 1
  24   12   39 1
  25   13   14 1
  26   13   21 1
  27   13   40 1
  28   14   15 1
  29   14   41 1
  30   14   42 1
  31   15   43 1
  32   15   44 1
  33   16   17 1
  34   16   45 1
  35   16   46 1
  36   17   18 1
  37   17   19 1
  38   17   20 1
  39   21   22 ar
  40   21   26 ar
  41   22   23 ar
  42   22   27 1
  43   23   24 ar
  44   23   47 1
  45   24   25 ar
  46   24   48 1
  47   25   26 ar
  48   25   49 1
  49   26   50 1
  50   27   28 1
  51   27   29 1
  52   27   30 1
  53   28   51 1
  54   28   52 1
  55   28   53 1
  56   29   54 1
  57   29   55 1
  58   29   56 1
  59   30   57 1
  60   31   32 3

#	End of record

