#	Name: ASD01814663
#	Creating user name:	WinNT
#	Creation time:	15. 06. 2019 19:32

#	Modifying user name:	WinNT
#	Modification time:	15. 06. 2019 19:32

#	Program:	/corina/corina34_cracker 3.40 0067  02.08.2006

@<TRIPOS>MOLECULE
ASD01814663
  52   56    0    0    0
SMALL
NO_CHARGES


@<TRIPOS>ATOM
   1 C1            -0.0169     1.3972     0.0097 C.2     
   2 C2             0.0021    -0.0041     0.0020 C.2     
   3 C3             1.1986    -0.6593    -0.0129 C.2     
   4 C4             2.3918     0.0821    -0.0204 C.2     
   5 N5             2.3437     1.4497    -0.0122 N.am    
   6 C6             1.1421     2.0937     0.0024 C.2     
   7 C7             3.6227    -0.5889    -0.0356 C.2     
   8 C8             4.7877     0.1218    -0.0425 C.2     
   9 C9             4.7345     1.5280    -0.0346 C.2     
  10 C10            3.4812     2.1736    -0.0189 C.2     
  11 O11            3.4258     3.3917    -0.0123 O.2     
  12 C12            5.9703     2.3140    -0.0413 C.2     
  13 O13            5.9124     3.6618    -0.0337 O.3     
  14 O14            7.0487     1.7516    -0.0537 O.2     
  15 C15            3.6593    -2.0954    -0.0439 C.3     
  16 N16            3.7787    -2.5747    -1.4274 N.3     
  17 C17            5.0699    -2.1912    -2.0067 C.3     
  18 C18            5.2213    -2.7711    -3.3891 C.ar    
  19 C19            4.4321    -3.8129    -3.8307 C.ar    
  20 C20            3.3679    -4.4251    -2.9562 C.3     
  21 C21            3.6027    -4.0341    -1.4970 C.3     
  22 C22            6.1872    -2.2305    -4.2274 C.ar    
  23 C23            6.3672    -2.7268    -5.5001 C.ar    
  24 C24            5.5739    -3.7806    -5.9498 C.ar    
  25 C25            4.6070    -4.3201    -5.1074 C.ar    
  26 C26            5.7597    -4.3242    -7.3180 C.ar    
  27 C27            4.9705    -5.3775    -7.7743 C.ar    
  28 N28            5.1341    -5.8607    -8.9890 N.ar    
  29 C29            6.0401    -5.3749    -9.8151 C.ar    
  30 C30            6.8628    -4.3295    -9.4363 C.ar    
  31 C31            6.7254    -3.7839    -8.1717 C.ar    
  32 H32           -0.9605     1.9226     0.0170 H       
  33 H33           -0.9233    -0.5609     0.0082 H       
  34 H34            1.2282    -1.7389    -0.0187 H       
  35 H35            1.1156     3.1733     0.0087 H       
  36 H36            5.7393    -0.3889    -0.0536 H       
  37 H37            6.7544     4.1373    -0.0385 H       
  38 H38            4.5153    -2.4412     0.5356 H       
  39 H39            2.7412    -2.4836     0.3971 H       
  40 H40            5.1298    -1.1044    -2.0640 H       
  41 H41            5.8738    -2.5622    -1.3710 H       
  42 H42            2.3885    -4.0671    -3.2737 H       
  43 H43            3.4026    -5.5105    -3.0500 H       
  44 H44            4.4995    -4.5293    -1.1249 H       
  45 H45            2.7422    -4.3282    -0.8960 H       
  46 H46            6.8024    -1.4140    -3.8791 H       
  47 H47            7.1198    -2.3005    -6.1467 H       
  48 H48            3.9897    -5.1370    -5.4508 H       
  49 H49            4.2179    -5.8020    -7.1264 H       
  50 H50            6.1415    -5.8001   -10.8027 H       
  51 H51            7.6017    -3.9406   -10.1213 H       
  52 H52            7.3541    -2.9669    -7.8498 H       
@<TRIPOS>BOND
   1    1    2 1
   2    1    6 2
   3    1   32 1
   4    2    3 2
   5    2   33 1
   6    3    4 1
   7    3   34 1
   8    4    5 1
   9    4    7 2
  10    5    6 1
  11    5   10 am
  12    6   35 1
  13    7    8 1
  14    7   15 1
  15    8    9 2
  16    8   36 1
  17    9   10 1
  18    9   12 1
  19   10   11 2
  20   12   13 1
  21   12   14 2
  22   13   37 1
  23   15   16 1
  24   15   38 1
  25   15   39 1
  26   16   17 1
  27   16   21 1
  28   17   18 1
  29   17   40 1
  30   17   41 1
  31   18   19 ar
  32   18   22 ar
  33   19   20 1
  34   19   25 ar
  35   20   21 1
  36   20   42 1
  37   20   43 1
  38   21   44 1
  39   21   45 1
  40   22   23 ar
  41   22   46 1
  42   23   24 ar
  43   23   47 1
  44   24   25 ar
  45   24   26 1
  46   25   48 1
  47   26   27 ar
  48   26   31 ar
  49   27   28 ar
  50   27   49 1
  51   28   29 ar
  52   29   30 ar
  53   29   50 1
  54   30   31 ar
  55   30   51 1
  56   31   52 1

#	End of record

