#	Name: ASD01911947
#	Creating user name:	WinNT
#	Creation time:	15. 06. 2019 19:58

#	Modifying user name:	WinNT
#	Modification time:	15. 06. 2019 19:58

#	Program:	/corina/corina34_cracker 3.40 0067  02.08.2006

@<TRIPOS>MOLECULE
ASD01911947
  38   40    0    0    0
SMALL
NO_CHARGES


@<TRIPOS>ATOM
   1 C1            -1.4287     1.2134     1.7170 C.ar    
   2 C2            -1.3523    -0.1698     1.5715 C.ar    
   3 C3            -1.5145    -0.9620     2.7056 C.ar    
   4 N4            -1.7338    -0.3764     3.8710 N.ar    
   5 C5            -1.7992     0.9365     3.9671 C.ar    
   6 N6            -1.6510     1.7206     2.9181 N.ar    
   7 N7            -1.1193    -0.7475     0.3203 N.pl3   
   8 C8            -1.0194    -2.1358     0.1996 C.ar    
   9 C9             0.3002    -4.0930    -0.2384 C.ar    
  10 C10           -0.8122    -4.8891    -0.0428 C.ar    
  11 C11           -2.0361    -4.3107     0.2702 C.ar    
  12 C12           -2.1396    -2.9321     0.3914 C.ar    
  13 N13           -3.1612    -5.1171     0.4674 N.am    
  14 C14           -4.3821    -4.6685     0.1144 C.2     
  15 C15           -5.5848    -5.4784     0.4170 C.ar    
  16 O16           -4.4962    -3.5994    -0.4521 O.2     
  17 C17           -6.8434    -5.0092     0.0496 C.ar    
  18 C18           -7.9604    -5.7782     0.3388 C.ar    
  19 C19           -7.7796    -6.9898     0.9854 C.ar    
  20 C20           -6.4962    -7.3959     1.3225 C.ar    
  21 N21           -5.4531    -6.6482     1.0313 N.ar    
  22 Cl22          -6.2630    -8.9130     2.1335 Cl      
  23 C23            0.2009    -2.7206    -0.1185 C.ar    
  24 C24           -0.9798     0.1026    -0.8646 C.3     
  25 H25           -1.3039     1.8621     0.8627 H       
  26 H26           -1.4625    -2.0384     2.6342 H       
  27 H27           -1.9799     1.3829     4.9337 H       
  28 H28            1.2505    -4.5453    -0.4812 H       
  29 H29           -0.7311    -5.9619    -0.1377 H       
  30 H30           -3.0897    -2.4801     0.6350 H       
  31 H31           -3.0631    -5.9994     0.8584 H       
  32 H32           -6.9480    -4.0592    -0.4534 H       
  33 H33           -8.9492    -5.4399     0.0663 H       
  34 H34           -8.6291    -7.6121     1.2252 H       
  35 H35            1.0721    -2.1012    -0.2723 H       
  36 H36            0.0679     0.3724    -0.9970 H       
  37 H37           -1.3295    -0.4389    -1.7436 H       
  38 H38           -1.5742     1.0071    -0.7349 H       
@<TRIPOS>BOND
   1    1    2 ar
   2    1    6 ar
   3    1   25 1
   4    2    3 ar
   5    2    7 1
   6    3    4 ar
   7    3   26 1
   8    4    5 ar
   9    5    6 ar
  10    5   27 1
  11    7    8 1
  12    7   24 1
  13    8   23 ar
  14    8   12 ar
  15    9   10 ar
  16    9   23 ar
  17    9   28 1
  18   10   11 ar
  19   10   29 1
  20   11   12 ar
  21   11   13 1
  22   12   30 1
  23   13   14 am
  24   13   31 1
  25   14   15 1
  26   14   16 2
  27   15   17 ar
  28   15   21 ar
  29   17   18 ar
  30   17   32 1
  31   18   19 ar
  32   18   33 1
  33   19   20 ar
  34   19   34 1
  35   20   21 ar
  36   20   22 1
  37   23   35 1
  38   24   36 1
  39   24   37 1
  40   24   38 1

#	End of record

