#	Name: ASD01884405
#	Creating user name:	WinNT
#	Creation time:	15. 06. 2019 19:48

#	Modifying user name:	WinNT
#	Modification time:	15. 06. 2019 19:48

#	Program:	/corina/corina34_cracker 3.40 0067  02.08.2006

@<TRIPOS>MOLECULE
ASD01884405
  35   37    0    0    0
SMALL
NO_CHARGES


@<TRIPOS>ATOM
   1 C1            -0.0164     1.3575     0.0095 C.2     
   2 C2             0.0021    -0.0041     0.0020 C.2     
   3 C3             1.2441    -0.6750    -0.0134 C.2     
   4 C4             2.4025     0.0467    -0.0206 C.2     
   5 N5             2.3701     1.4021    -0.0130 N.am    
   6 C6             1.1988     2.0651     0.0017 C.2     
   7 C7             1.2900    -2.1582    -0.0214 C.ar    
   8 C8             3.6267     2.1552    -0.0210 C.3     
   9 O9             1.1913     3.2854     0.0083 O.2     
  10 C10            4.0440     2.4210    -1.4445 C.ar    
  11 C11            3.6201     3.5698    -2.0859 C.ar    
  12 C12            4.0029     3.8137    -3.3916 C.ar    
  13 C13            4.8099     2.9089    -4.0558 C.ar    
  14 C14            5.2346     1.7606    -3.4140 C.ar    
  15 C15            4.8554     1.5189    -2.1068 C.ar    
  16 C16            0.8130    -2.8778     1.0722 C.ar    
  17 C17            1.8048    -2.8354    -1.1247 C.ar    
  18 C18            1.8457    -4.2173    -1.1278 C.ar    
  19 C19            1.3753    -4.9285    -0.0363 C.ar    
  20 C20            0.8578    -4.2595     1.0605 C.ar    
  21 F21            2.3447    -4.8750    -2.1972 F       
  22 F22            0.4003    -4.9582     2.1225 F       
  23 H23           -0.9563     1.8894     0.0169 H       
  24 H24           -0.9217    -0.5636     0.0082 H       
  25 H25            3.3529    -0.4662    -0.0321 H       
  26 H26            3.4858     3.1026     0.4993 H       
  27 H27            4.4007     1.5758     0.4824 H       
  28 H28            2.9896     4.2767    -1.5671 H       
  29 H29            3.6711     4.7108    -3.8930 H       
  30 H30            5.1084     3.0991    -5.0761 H       
  31 H31            5.8648     1.0536    -3.9330 H       
  32 H32            5.1871     0.6217    -1.6054 H       
  33 H33            0.4093    -2.3569     1.9278 H       
  34 H34            2.1712    -2.2816    -1.9765 H       
  35 H35            1.4084    -6.0080    -0.0422 H       
@<TRIPOS>BOND
   1    1    2 2
   2    1    6 1
   3    1   23 1
   4    2    3 1
   5    2   24 1
   6    3    4 2
   7    3    7 1
   8    4    5 1
   9    4   25 1
  10    5    6 am
  11    5    8 1
  12    6    9 2
  13    7   16 ar
  14    7   17 ar
  15    8   10 1
  16    8   26 1
  17    8   27 1
  18   10   11 ar
  19   10   15 ar
  20   11   12 ar
  21   11   28 1
  22   12   13 ar
  23   12   29 1
  24   13   14 ar
  25   13   30 1
  26   14   15 ar
  27   14   31 1
  28   15   32 1
  29   16   20 ar
  30   16   33 1
  31   17   18 ar
  32   17   34 1
  33   18   19 ar
  34   18   21 1
  35   19   20 ar
  36   19   35 1
  37   20   22 1

#	End of record

