#	Name: ASD01420102
#	Creating user name:	WinNT
#	Creation time:	15. 06. 2019 19:20

#	Modifying user name:	WinNT
#	Modification time:	15. 06. 2019 19:20

#	Program:	/corina/corina34_cracker 3.40 0067  02.08.2006

@<TRIPOS>MOLECULE
ASD01420102
  44   46    0    0    0
SMALL
NO_CHARGES


@<TRIPOS>ATOM
   1 C1            -0.1805     0.9353    -1.5552 C.3     
   2 N2            -0.0776    -0.2581    -0.7098 N.am    
   3 C3             1.3107    -0.7220    -0.7941 C.3     
   4 C4             2.0532     0.2169    -1.7115 C.ar    
   5 C5             3.3717     0.2286    -2.1245 C.ar    
   6 C6             3.8214     1.2232    -2.9936 C.ar    
   7 C7             2.9325     2.2028    -3.4412 C.ar    
   8 C8             1.6197     2.1800    -3.0218 C.ar    
   9 C9             1.1784     1.1895    -2.1582 C.ar    
  10 C10            5.2303     1.2402    -3.4375 C.2     
  11 O11            6.0008     0.3867    -3.0458 O.2     
  12 O12            5.6605     2.2021    -4.2767 O.3     
  13 C13           -1.0697    -0.8212     0.0079 C.2     
  14 C14           -2.3878    -0.1678     0.0815 C.ar    
  15 C15           -3.5598    -0.9300    -0.0404 C.ar    
  16 C16           -4.7942    -0.3082     0.0305 C.ar    
  17 C17           -4.8705     1.0638     0.2214 C.ar    
  18 C18           -3.7094     1.8209     0.3420 C.ar    
  19 C19           -2.4764     1.2135     0.2790 C.ar    
  20 O20           -0.8766    -1.8689     0.5946 O.2     
  21 C21           -3.8026     3.3108     0.5482 C.3     
  22 C22           -3.1306     3.6857     1.8706 C.3     
  23 C23           -3.0982     4.0302    -0.6038 C.3     
  24 O24           -6.0827     1.6701     0.2904 O.3     
  25 O25           -3.4830    -2.2715    -0.2275 O.3     
  26 H26           -0.9101     0.7652    -2.3471 H       
  27 H27           -0.4825     1.7909    -0.9512 H       
  28 H28            1.7658    -0.7076     0.1962 H       
  29 H29            1.3383    -1.7334    -1.1996 H       
  30 H30            4.0542    -0.5317    -1.7743 H       
  31 H31            3.2728     2.9763    -4.1138 H       
  32 H32            0.9318     2.9375    -3.3673 H       
  33 H33            6.5907     2.1718    -4.5392 H       
  34 H34           -5.6984    -0.8912    -0.0632 H       
  35 H35           -1.5775     1.8039     0.3779 H       
  36 H36           -4.8507     3.6089     0.5760 H       
  37 H37           -2.0825     3.3876     1.8429 H       
  38 H38           -3.1980     4.7633     2.0198 H       
  39 H39           -3.6324     3.1732     2.6913 H       
  40 H40           -2.0501     3.7321    -0.6316 H       
  41 H41           -3.5769     3.7631    -1.5459 H       
  42 H42           -3.1656     5.1078    -0.4546 H       
  43 H43           -6.4455     1.7234     1.1852 H       
  44 H44           -3.4720    -2.7830     0.5930 H       
@<TRIPOS>BOND
   1    1    2 1
   2    1    9 1
   3    1   26 1
   4    1   27 1
   5    2    3 1
   6    2   13 am
   7    3    4 1
   8    3   28 1
   9    3   29 1
  10    4    5 ar
  11    4    9 ar
  12    5    6 ar
  13    5   30 1
  14    6    7 ar
  15    6   10 1
  16    7    8 ar
  17    7   31 1
  18    8    9 ar
  19    8   32 1
  20   10   11 2
  21   10   12 1
  22   12   33 1
  23   13   14 1
  24   13   20 2
  25   14   15 ar
  26   14   19 ar
  27   15   16 ar
  28   15   25 1
  29   16   17 ar
  30   16   34 1
  31   17   18 ar
  32   17   24 1
  33   18   19 ar
  34   18   21 1
  35   19   35 1
  36   21   22 1
  37   21   23 1
  38   21   36 1
  39   22   37 1
  40   22   38 1
  41   22   39 1
  42   23   40 1
  43   23   41 1
  44   23   42 1
  45   24   43 1
  46   25   44 1

#	End of record

