#	Name: ASD01870254
#	Creating user name:	WinNT
#	Creation time:	15. 06. 2019 19:38

#	Modifying user name:	WinNT
#	Modification time:	15. 06. 2019 19:38

#	Program:	/corina/corina34_cracker 3.40 0067  02.08.2006

@<TRIPOS>MOLECULE
ASD01870254
  62   66    0    0    0
SMALL
NO_CHARGES


@<TRIPOS>ATOM
   1 C1            -0.3001     1.8400    -0.4030 C.ar    
   2 C2            -0.4238     0.4532    -0.4376 C.ar    
   3 C3             0.6756    -0.3521    -0.4053 C.ar    
   4 C4             1.9521     0.2220    -0.3368 C.ar    
   5 C5             2.0782     1.6371    -0.3020 C.ar    
   6 C6             0.9247     2.4339    -0.3364 C.ar    
   7 C7             3.1218    -0.5596    -0.3013 C.ar    
   8 N8             4.2978     0.0080    -0.2374 N.ar    
   9 C9             4.4627     1.3374    -0.2028 C.ar    
  10 C10            3.3665     2.1827    -0.2341 C.ar    
  11 C11            5.6833     2.1700    -0.1319 C.2     
  12 N12            5.3597     3.4742    -0.1198 N.am    
  13 C13            3.8982     3.5914    -0.1820 C.3     
  14 C14            6.3061     4.5905    -0.0543 C.3     
  15 C15            7.1276     4.4879     1.2323 C.3     
  16 C16            7.8972     3.1656     1.2419 C.3     
  17 C17            8.8337     3.1118     0.0332 C.3     
  18 C18            8.0122     3.2144    -1.2534 C.3     
  19 C19            7.2426     4.5367    -1.2630 C.3     
  20 C20            3.0181    -2.0626    -0.3368 C.3     
  21 C21            3.0460    -2.5344    -1.7678 C.ar    
  22 C22            4.2464    -2.8364    -2.3811 C.ar    
  23 N23            4.2796    -3.2500    -3.6332 N.ar    
  24 C24            3.1783    -3.3918    -4.3461 C.ar    
  25 C25            1.9396    -3.1079    -3.7980 C.ar    
  26 C26            1.8662    -2.6761    -2.4834 C.ar    
  27 O27            6.8179     1.7361    -0.0906 O.2     
  28 O28            6.2529     4.5382     2.3612 O.3     
  29 C29            3.3740     4.3059     1.0652 C.3     
  30 Cl30           3.2844    -3.9400    -5.9898 Cl      
  31 C31            3.8420     5.7625     1.0531 C.3     
  32 O32            3.4287     6.3855    -0.1647 O.3     
  33 C33            3.2269     6.5058     2.2406 C.3     
  34 O34            3.7541     7.8328     2.2968 O.3     
  35 H35           -1.1880     2.4541    -0.4341 H       
  36 H36           -1.4067     0.0087    -0.4904 H       
  37 H37            0.5635    -1.4260    -0.4320 H       
  38 H38            1.0065     3.5105    -0.3109 H       
  39 H39            3.6037     4.1367    -1.0787 H       
  40 H40            5.7578     5.5326    -0.0612 H       
  41 H41            7.8318     5.3185     1.2810 H       
  42 H42            8.4825     3.0926     2.1586 H       
  43 H43            7.1931     2.3350     1.1933 H       
  44 H44            9.5379     3.9424     0.0819 H       
  45 H45            9.3820     2.1698     0.0401 H       
  46 H46            8.6794     3.1761    -2.1145 H       
  47 H47            7.3081     2.3838    -1.3021 H       
  48 H48            6.6573     4.6098    -2.1797 H       
  49 H49            7.9467     5.3673    -1.2144 H       
  50 H50            3.8574    -2.4977     0.2056 H       
  51 H51            2.0834    -2.3734     0.1300 H       
  52 H52            5.1687    -2.7324    -1.8289 H       
  53 H53            1.0414    -3.2251    -4.3862 H       
  54 H54            0.9134    -2.4476    -2.0291 H       
  55 H55            6.7065     4.4782     3.2132 H       
  56 H56            2.2845     4.2744     1.0711 H       
  57 H57            3.7567     3.8088     1.9566 H       
  58 H58            4.9290     5.7955     1.1274 H       
  59 H59            2.4709     6.3925    -0.2976 H       
  60 H60            2.1444     6.5497     2.1205 H       
  61 H61            3.4690     5.9792     3.1637 H       
  62 H62            3.4073     8.3632     3.0272 H       
@<TRIPOS>BOND
   1    1    2 ar
   2    1    6 ar
   3    1   35 1
   4    2    3 ar
   5    2   36 1
   6    3    4 ar
   7    3   37 1
   8    4    5 ar
   9    4    7 ar
  10    5    6 ar
  11    5   10 ar
  12    6   38 1
  13    7    8 ar
  14    7   20 1
  15    8    9 ar
  16    9   10 ar
  17    9   11 1
  18   10   13 1
  19   11   12 am
  20   11   27 2
  21   12   13 1
  22   12   14 1
  23   13   29 1
  24   13   39 1
  25   14   15 1
  26   14   19 1
  27   14   40 1
  28   15   16 1
  29   15   28 1
  30   15   41 1
  31   16   17 1
  32   16   42 1
  33   16   43 1
  34   17   18 1
  35   17   44 1
  36   17   45 1
  37   18   19 1
  38   18   46 1
  39   18   47 1
  40   19   48 1
  41   19   49 1
  42   20   21 1
  43   20   50 1
  44   20   51 1
  45   21   22 ar
  46   21   26 ar
  47   22   23 ar
  48   22   52 1
  49   23   24 ar
  50   24   25 ar
  51   24   30 1
  52   25   26 ar
  53   25   53 1
  54   26   54 1
  55   28   55 1
  56   29   31 1
  57   29   56 1
  58   29   57 1
  59   31   32 1
  60   31   33 1
  61   31   58 1
  62   32   59 1
  63   33   34 1
  64   33   60 1
  65   33   61 1
  66   34   62 1

#	End of record

