#	Name: ASD01813959
#	Creating user name:	WinNT
#	Creation time:	15. 06. 2019 19:31

#	Modifying user name:	WinNT
#	Modification time:	15. 06. 2019 19:31

#	Program:	/corina/corina34_cracker 3.40 0067  02.08.2006

@<TRIPOS>MOLECULE
ASD01813959
  57   60    0    0    0
SMALL
NO_CHARGES


@<TRIPOS>ATOM
   1 C1            -0.0184     1.5028     0.0103 C.3     
   2 C2             0.0021    -0.0041     0.0020 C.ar    
   3 C3             0.0058    -0.6873    -1.1993 C.ar    
   4 C4            -0.0112     0.0784    -2.4972 C.3     
   5 C5             0.0254    -2.0716    -1.2166 C.ar    
   6 C6             0.0298    -2.8063    -2.5323 C.3     
   7 C7             1.4446    -2.9229    -3.0379 C.ar    
   8 C8             1.9723    -1.9329    -3.8462 C.ar    
   9 C9             3.2686    -2.0372    -4.3115 C.ar    
  10 C10            4.0421    -3.1373    -3.9664 C.ar    
  11 C11            3.5096    -4.1295    -3.1542 C.ar    
  12 C12            2.2144    -4.0170    -2.6878 C.ar    
  13 N13            5.3579    -3.2462    -4.4374 N.pl3   
  14 C14            6.2129    -4.2624    -4.1826 C.2     
  15 C15            7.3762    -3.9909    -4.8182 C.2     
  16 C16            7.2286    -2.7690    -5.4837 C.2     
  17 N17            6.0180    -2.3245    -5.2604 N.2     
  18 C18            0.0415    -2.7801    -0.0341 C.ar    
  19 C19            0.0374    -2.0989     1.1851 C.ar    
  20 C20            0.0551    -2.8515     2.4558 C.2     
  21 O21            0.0515    -2.2555     3.5154 O.2     
  22 N22            0.0751    -4.1991     2.4407 N.am    
  23 C23            0.0926    -4.9456     3.7011 C.3     
  24 H24            0.6775    -4.3984     4.4404 H       
  25 C25           -1.3401    -5.1223     4.2110 C.3     
  26 O26           -1.3251    -5.9002     5.4096 O.3     
  27 C27           -0.7947    -7.2168     5.2442 C.3     
  28 C28            0.6599    -7.1242     4.7758 C.3     
  29 C29            0.7194    -6.3242     3.4708 C.3     
  30 H30            0.1647    -6.8519     2.6950 H       
  31 O31            2.0809    -6.1686     3.0656 O.3     
  32 C32            0.0229    -0.7008     1.1967 C.ar    
  33 F33            0.0249    -0.0327     2.3710 F       
  34 H34            1.0042     1.8801     0.0026 H       
  35 H35           -0.5455     1.8639    -0.8728 H       
  36 H36           -0.5286     1.8543     0.9071 H       
  37 H37            1.0123     0.2773    -2.8151 H       
  38 H38           -0.5206    -0.5106    -3.2599 H       
  39 H39           -0.5375     1.0223    -2.3554 H       
  40 H40           -0.3898    -3.8027    -2.3935 H       
  41 H41           -0.5709    -2.2569    -3.2572 H       
  42 H42            1.3702    -1.0774    -4.1143 H       
  43 H43            3.6800    -1.2639    -4.9434 H       
  44 H44            4.1088    -4.9866    -2.8844 H       
  45 H45            1.8012    -4.7863    -2.0525 H       
  46 H46            6.0047    -5.1340    -3.5798 H       
  47 H47            8.2623    -4.6084    -4.8129 H       
  48 H48            7.9825    -2.2788    -6.0818 H       
  49 H49            0.0568    -3.8598    -0.0505 H       
  50 H50            0.0780    -4.6746     1.5953 H       
  51 H51           -1.7756    -4.1446     4.4175 H       
  52 H52           -1.9350    -5.6328     3.4537 H       
  53 H53           -0.8373    -7.7480     6.1950 H       
  54 H54           -1.3825    -7.7547     4.5004 H       
  55 H55            1.2565    -6.6220     5.5374 H       
  56 H56            1.0526    -8.1269     4.6067 H       
  57 H57            2.5404    -7.0036     2.9021 H       
@<TRIPOS>BOND
   1    1    2 1
   2    1   34 1
   3    1   35 1
   4    1   36 1
   5    2   32 ar
   6    2    3 ar
   7    3    4 1
   8    3    5 ar
   9    4   37 1
  10    4   38 1
  11    4   39 1
  12    5    6 1
  13    5   18 ar
  14    6    7 1
  15    6   40 1
  16    6   41 1
  17    7   12 ar
  18    7    8 ar
  19    8    9 ar
  20    8   42 1
  21    9   10 ar
  22    9   43 1
  23   10   11 ar
  24   10   13 1
  25   11   12 ar
  26   11   44 1
  27   12   45 1
  28   13   17 1
  29   13   14 1
  30   14   15 2
  31   14   46 1
  32   15   16 1
  33   15   47 1
  34   16   17 2
  35   16   48 1
  36   18   19 ar
  37   18   49 1
  38   19   20 1
  39   19   32 ar
  40   20   21 2
  41   20   22 am
  42   22   23 1
  43   22   50 1
  44   23   24 1
  45   23   29 1
  46   23   25 1
  47   25   26 1
  48   25   51 1
  49   25   52 1
  50   26   27 1
  51   27   28 1
  52   27   53 1
  53   27   54 1
  54   28   29 1
  55   28   55 1
  56   28   56 1
  57   29   30 1
  58   29   31 1
  59   31   57 1
  60   32   33 1

#	End of record

