#	Name: ASD09116302
#	Creating user name:	WinNT
#	Creation time:	15. 06. 2019 21:21

#	Modifying user name:	WinNT
#	Modification time:	15. 06. 2019 21:21

#	Program:	/corina/corina34_cracker 3.40 0067  02.08.2006

@<TRIPOS>MOLECULE
ASD09116302
  82   89    0    0    0
SMALL
NO_CHARGES


@<TRIPOS>ATOM
   1 N1             0.1212     1.2634    -0.5099 N.2     
   2 N2             0.1341    -0.0403    -1.0313 N.pl3   
   3 C3             1.3679     1.6671    -0.4575 C.2     
   4 N4             2.1617     0.6921    -0.9158 N.2     
   5 C5             1.4320    -0.3453    -1.2662 C.2     
   6 N6             1.9067    -1.5359    -1.7828 N.pl3   
   7 C7            -0.9723    -0.8600    -1.2612 C.ar    
   8 N8             1.7974     2.9125     0.0017 N.pl3   
   9 C9             3.1638     3.1839     0.1104 C.ar    
  10 C10            3.6294     4.4850    -0.0407 C.ar    
  11 C11            4.0585     2.1549     0.3752 C.ar    
  12 C12            5.4095     2.4250     0.4821 C.ar    
  13 C13            5.8646     3.7227     0.3239 C.ar    
  14 C14            4.9831     4.7419     0.0681 C.ar    
  15 N15           -0.9082    -1.8189    -2.1728 N.ar    
  16 N16           -1.9010    -2.5941    -2.4301 N.ar    
  17 C17           -3.0555    -2.4771    -1.7939 C.ar    
  18 C18           -3.2089    -1.5065    -0.7998 C.ar    
  19 C19           -2.1454    -0.6726    -0.5258 C.ar    
  20 C20           -4.2180    -3.3330    -2.1260 C.ar    
  21 C21           -5.4569    -2.7306    -2.3507 C.ar    
  22 C22           -5.5672    -1.2312    -2.3055 C.3     
  23 C23           -5.5724    -0.7164    -0.8687 C.3     
  24 C24           -4.4998    -1.4172    -0.0391 C.3     
  25 C25           -4.0907    -4.7150    -2.2112 C.ar    
  26 C26           -5.1992    -5.4871    -2.5001 C.ar    
  27 C27           -6.4294    -4.8879    -2.7016 C.ar    
  28 C28           -6.5585    -3.5119    -2.6261 C.ar    
  29 C29            7.3471     4.0112     0.4410 C.3     
  30 C30            7.5892     4.7853     1.7390 C.3     
  31 C31            7.3867     6.2728     1.5288 C.3     
  32 C32            5.9520     6.6774     1.2534 C.3     
  33 C33            5.4886     6.1593    -0.1044 C.3     
  34 N34            7.8478     6.9803     2.7308 N.3     
  35 C35            7.8953     8.4306     2.5023 C.3     
  36 C36            8.5286     9.1539     3.7299 C.3     
  37 C37            8.8406     8.7599     1.3243 C.3     
  38 C38            9.9560     9.6511     1.9512 C.3     
  39 C39           10.0548     9.0250     3.3871 C.3     
  40 C40            9.2430    10.9998     2.2734 C.3     
  41 C41            8.2977    10.6706     3.4513 C.3     
  42 C42            7.0032     6.6571     3.8884 C.3     
  43 H43            2.8593    -1.6611    -1.9163 H       
  44 H44            1.2873    -2.2463    -2.0120 H       
  45 H45            1.1474     3.5900     0.2455 H       
  46 H46            2.9379     5.2898    -0.2421 H       
  47 H47            3.6983     1.1441     0.4978 H       
  48 H48            6.1073     1.6270     0.6886 H       
  49 H49           -2.2193     0.1017     0.2234 H       
  50 H50           -4.7216    -0.7952    -2.8374 H       
  51 H51           -6.4914    -0.9267    -2.7967 H       
  52 H52           -5.3801     0.3565    -0.8712 H       
  53 H53           -6.5497    -0.9040    -0.4238 H       
  54 H54           -4.8393    -2.4225     0.2100 H       
  55 H55           -4.3355    -0.8568     0.8813 H       
  56 H56           -3.1301    -5.1824    -2.0525 H       
  57 H57           -5.1050    -6.5608    -2.5692 H       
  58 H58           -7.2942    -5.4973    -2.9188 H       
  59 H59           -7.5222    -3.0504    -2.7836 H       
  60 H60            7.9020     3.0733     0.4648 H       
  61 H61            7.6719     4.6110    -0.4092 H       
  62 H62            6.8938     4.4333     2.5010 H       
  63 H63            8.6100     4.6070     2.0772 H       
  64 H64            8.0029     6.5901     0.6875 H       
  65 H65            5.3082     6.2656     2.0307 H       
  66 H66            5.8776     7.7648     1.2668 H       
  67 H67            6.3246     6.1660    -0.8037 H       
  68 H68            4.6853     6.7914    -0.4829 H       
  69 H69            6.8947     8.8169     2.3082 H       
  70 H70            8.2223     8.7867     4.7094 H       
  71 H71            9.2701     7.8456     0.9148 H       
  72 H72            8.3056     9.3095     0.5499 H       
  73 H73           10.8874     9.7150     1.3885 H       
  74 H74           10.6754     9.6248     4.0528 H       
  75 H75           10.3809     7.9853     3.3581 H       
  76 H76            9.9721    11.7536     2.5705 H       
  77 H77            8.6708    11.3425     1.4113 H       
  78 H78            7.2607    10.8514     3.1683 H       
  79 H79            8.5621    11.2625     4.3276 H       
  80 H80            7.0806     5.5924     4.1087 H       
  81 H81            7.3358     7.2321     4.7526 H       
  82 H82            5.9665     6.9071     3.6628 H       
@<TRIPOS>BOND
   1    1    2 1
   2    1    3 2
   3    2    7 1
   4    2    5 1
   5    3    4 1
   6    3    8 1
   7    4    5 2
   8    5    6 1
   9    6   43 1
  10    6   44 1
  11    7   15 ar
  12    7   19 ar
  13    8    9 1
  14    8   45 1
  15    9   10 ar
  16    9   11 ar
  17   10   14 ar
  18   10   46 1
  19   11   12 ar
  20   11   47 1
  21   12   13 ar
  22   12   48 1
  23   13   14 ar
  24   13   29 1
  25   14   33 1
  26   15   16 ar
  27   16   17 ar
  28   17   18 ar
  29   17   20 1
  30   18   19 ar
  31   18   24 1
  32   19   49 1
  33   20   21 ar
  34   20   25 ar
  35   21   22 1
  36   21   28 ar
  37   22   23 1
  38   22   50 1
  39   22   51 1
  40   23   24 1
  41   23   52 1
  42   23   53 1
  43   24   54 1
  44   24   55 1
  45   25   26 ar
  46   25   56 1
  47   26   27 ar
  48   26   57 1
  49   27   28 ar
  50   27   58 1
  51   28   59 1
  52   29   30 1
  53   29   60 1
  54   29   61 1
  55   30   31 1
  56   30   62 1
  57   30   63 1
  58   31   32 1
  59   31   34 1
  60   31   64 1
  61   32   33 1
  62   32   65 1
  63   32   66 1
  64   33   67 1
  65   33   68 1
  66   34   35 1
  67   34   42 1
  68   35   36 1
  69   35   37 1
  70   35   69 1
  71   36   39 1
  72   36   41 1
  73   36   70 1
  74   37   38 1
  75   37   71 1
  76   37   72 1
  77   38   39 1
  78   38   40 1
  79   38   73 1
  80   39   74 1
  81   39   75 1
  82   40   41 1
  83   40   76 1
  84   40   77 1
  85   41   78 1
  86   41   79 1
  87   42   80 1
  88   42   81 1
  89   42   82 1

#	End of record

