#	Name: ASD00460023
#	Creating user name:	WinNT
#	Creation time:	15. 06. 2019 18:36

#	Modifying user name:	WinNT
#	Modification time:	15. 06. 2019 18:36

#	Program:	/corina/corina34_cracker 3.40 0067  02.08.2006

@<TRIPOS>MOLECULE
ASD00460023
  75   79    0    0    0
SMALL
NO_CHARGES


@<TRIPOS>ATOM
   1 O1             0.2988    -1.3852    -0.1830 O.2     
   2 C2            -0.2385    -0.2951    -0.2174 C.2     
   3 N3             0.5072     0.8259    -0.1557 N.am    
   4 C4             1.9650     0.7309    -0.0469 C.3     
   5 C5             2.5803     0.7055    -1.4475 C.3     
   6 C6             4.1029     0.6063    -1.3340 C.3     
   7 C7             4.7005     0.4576    -2.7094 C.ar    
   8 C8             4.3289     1.3225    -3.7217 C.ar    
   9 C9             4.8771     1.1861    -4.9833 C.ar    
  10 C10            5.7973     0.1851    -5.2326 C.ar    
  11 C11            6.1696    -0.6793    -4.2201 C.ar    
  12 C12            5.6246    -0.5402    -2.9573 C.ar    
  13 C13            4.6406     1.8555    -0.6850 C.ar    
  14 C14            5.3114     1.7740     0.5210 C.ar    
  15 C15            5.8047     2.9199     1.1164 C.ar    
  16 C16            5.6275     4.1473     0.5056 C.ar    
  17 C17            4.9575     4.2287    -0.7008 C.ar    
  18 C18            4.4681     3.0822    -1.2983 C.ar    
  19 C19           -0.1403     2.1394    -0.1972 C.3     
  20 C20           -0.4734     2.5891     1.2268 C.3     
  21 N21           -1.1226     3.9062     1.1851 N.3     
  22 C22           -1.6694     4.2659     2.5015 C.3     
  23 C23           -2.2823     5.6669     2.4280 C.3     
  24 O24           -3.2787     5.6927     1.4023 O.3     
  25 C25           -2.7804     5.3480     0.1069 C.3     
  26 C26           -2.1726     3.9437     0.1569 C.3     
  27 N27           -1.5792    -0.2077    -0.3231 N.am    
  28 C28           -2.3397    -1.3598    -0.5164 C.ar    
  29 C29           -3.7096    -1.2517    -0.7299 C.ar    
  30 C30           -4.4587    -2.4008    -0.9216 C.ar    
  31 C31           -3.8122    -3.6261    -0.8938 C.ar    
  32 C32           -2.4378    -3.6644    -0.6752 C.ar    
  33 N33           -1.7495    -2.5433    -0.5001 N.ar    
  34 C34           -1.7351    -4.9705    -0.6433 C.ar    
  35 C35           -0.3595    -5.0194    -0.4252 C.ar    
  36 C36            0.2890    -6.2373    -0.3966 C.ar    
  37 C37           -0.4237    -7.4080    -0.5839 C.ar    
  38 C38           -1.7892    -7.3653    -0.8008 C.ar    
  39 C39           -2.4490    -6.1534    -0.8257 C.ar    
  40 H40            2.3454     1.5927     0.5014 H       
  41 H41            2.2310    -0.1835     0.4834 H       
  42 H42            2.1999    -0.1564    -1.9959 H       
  43 H43            2.3143     1.6198    -1.9779 H       
  44 H44            4.3663    -0.2604    -0.7277 H       
  45 H45            3.6100     2.1046    -3.5270 H       
  46 H46            4.5862     1.8614    -5.7744 H       
  47 H47            6.2250     0.0781    -6.2185 H       
  48 H48            6.8882    -1.4616    -4.4149 H       
  49 H49            5.9155    -1.2154    -2.1662 H       
  50 H50            5.4498     0.8150     0.9982 H       
  51 H51            6.3281     2.8563     2.0589 H       
  52 H52            6.0123     5.0426     0.9711 H       
  53 H53            4.8188     5.1876    -1.1778 H       
  54 H54            3.9446     3.1458    -2.2408 H       
  55 H55            0.5332     2.8620    -0.6582 H       
  56 H56           -1.0580     2.0738    -0.7816 H       
  57 H57           -1.1468     1.8665     1.6878 H       
  58 H58            0.4444     2.6547     1.8112 H       
  59 H59           -2.4380     3.5469     2.7852 H       
  60 H60           -0.8701     4.2567     3.2425 H       
  61 H61           -2.7395     5.9149     3.3859 H       
  62 H62           -1.5032     6.3934     2.1969 H       
  63 H63           -3.5979     5.3653    -0.6139 H       
  64 H64           -2.0158     6.0651    -0.1917 H       
  65 H65           -1.7407     3.6993    -0.8136 H       
  66 H66           -2.9492     3.2196     0.4031 H       
  67 H67           -2.0150     0.6569    -0.2645 H       
  68 H68           -4.1845    -0.2818    -0.7456 H       
  69 H69           -5.5241    -2.3431    -1.0890 H       
  70 H70           -4.3680    -4.5406    -1.0395 H       
  71 H71            0.1979    -4.1060    -0.2792 H       
  72 H72            1.3551    -6.2765    -0.2281 H       
  73 H73            0.0880    -8.3588    -0.5611 H       
  74 H74           -2.3407    -8.2824    -0.9464 H       
  75 H75           -3.5152    -6.1212    -0.9951 H       
@<TRIPOS>BOND
   1    1    2 2
   2    2    3 am
   3    2   27 am
   4    3    4 1
   5    3   19 1
   6    4    5 1
   7    4   40 1
   8    4   41 1
   9    5    6 1
  10    5   42 1
  11    5   43 1
  12    6    7 1
  13    6   13 1
  14    6   44 1
  15    7    8 ar
  16    7   12 ar
  17    8    9 ar
  18    8   45 1
  19    9   10 ar
  20    9   46 1
  21   10   11 ar
  22   10   47 1
  23   11   12 ar
  24   11   48 1
  25   12   49 1
  26   13   14 ar
  27   13   18 ar
  28   14   15 ar
  29   14   50 1
  30   15   16 ar
  31   15   51 1
  32   16   17 ar
  33   16   52 1
  34   17   18 ar
  35   17   53 1
  36   18   54 1
  37   19   20 1
  38   19   55 1
  39   19   56 1
  40   20   21 1
  41   20   57 1
  42   20   58 1
  43   21   22 1
  44   21   26 1
  45   22   23 1
  46   22   59 1
  47   22   60 1
  48   23   24 1
  49   23   61 1
  50   23   62 1
  51   24   25 1
  52   25   26 1
  53   25   63 1
  54   25   64 1
  55   26   65 1
  56   26   66 1
  57   27   28 1
  58   27   67 1
  59   28   29 ar
  60   28   33 ar
  61   29   30 ar
  62   29   68 1
  63   30   31 ar
  64   30   69 1
  65   31   32 ar
  66   31   70 1
  67   32   33 ar
  68   32   34 1
  69   34   35 ar
  70   34   39 ar
  71   35   36 ar
  72   35   71 1
  73   36   37 ar
  74   36   72 1
  75   37   38 ar
  76   37   73 1
  77   38   39 ar
  78   38   74 1
  79   39   75 1

#	End of record

