#	Name: ASD03730052
#	Creating user name:	WinNT
#	Creation time:	15. 06. 2019 20:43

#	Modifying user name:	WinNT
#	Modification time:	15. 06. 2019 20:43

#	Program:	/corina/corina34_cracker 3.40 0067  02.08.2006

@<TRIPOS>MOLECULE
ASD03730052
  40   44    0    0    0
SMALL
NO_CHARGES


@<TRIPOS>ATOM
   1 C1            -0.0184     1.5028     0.0103 C.2     
   2 C2             0.0021    -0.0041     0.0020 C.3     
   3 O3             1.0197     2.1211     0.0037 O.2     
   4 O4            -1.1898     2.1580     0.0194 O.3     
   5 O5             5.2327    -2.4862     1.3790 O.3     
   6 C6             5.5759    -1.1866     1.6072 C.ar    
   7 C7             4.5759    -0.3186     1.1750 C.ar    
   8 C8             3.4663    -1.1775     0.6321 C.3     
   9 C9             3.8110    -2.5748     1.1664 C.3     
  10 O10            7.9198     1.4214     2.8535 O.3     
  11 C11            6.8862     0.7134     2.3190 C.ar    
  12 C12            5.8817     1.5585     1.8643 C.ar    
  13 C13            6.3417     2.9792     2.1266 C.3     
  14 C14            7.8528     2.7812     2.3924 C.3     
  15 C15            4.7344     1.0450     1.2998 C.ar    
  16 C16            6.7264    -0.6608     2.1818 C.ar    
  17 N17            1.3897    -0.4735    -0.0138 N.am    
  18 C18            2.1130    -0.7212     1.0964 C.2     
  19 C19            3.4024    -1.1520    -0.8662 C.ar    
  20 C20            4.3041    -1.4546    -1.8620 C.ar    
  21 C21            3.9377    -1.3279    -3.1910 C.ar    
  22 C22            2.6633    -0.8963    -3.5155 C.ar    
  23 C23            1.7573    -0.5922    -2.5210 C.ar    
  24 C24            2.1178    -0.7169    -1.1815 C.ar    
  25 O25            1.7432    -0.5996     2.2451 O.2     
  26 Cl26           5.0738    -1.7088    -4.4472 Cl      
  27 H27           -0.4983    -0.3791     0.8948 H       
  28 H28           -0.5153    -0.3696    -0.8850 H       
  29 H29           -1.1523     3.1243     0.0245 H       
  30 H30            3.5773    -3.3405     0.4266 H       
  31 H31            3.2908    -2.7697     2.1042 H       
  32 H32            6.1791     3.6091     1.2521 H       
  33 H33            5.8432     3.3947     3.0024 H       
  34 H34            8.2025     3.4680     3.1632 H       
  35 H35            8.4260     2.9061     1.4737 H       
  36 H36            3.9583     1.7119     0.9542 H       
  37 H37            7.5043    -1.3264     2.5257 H       
  38 H38            5.2980    -1.7907    -1.6060 H       
  39 H39            2.3769    -0.7973    -4.5521 H       
  40 H40            0.7650    -0.2552    -2.7820 H       
@<TRIPOS>BOND
   1    1    2 1
   2    1    3 2
   3    1    4 1
   4    2   17 1
   5    2   27 1
   6    2   28 1
   7    4   29 1
   8    5    6 1
   9    5    9 1
  10    6    7 ar
  11    6   16 ar
  12    7    8 1
  13    7   15 ar
  14    8    9 1
  15    8   18 1
  16    8   19 1
  17    9   30 1
  18    9   31 1
  19   10   11 1
  20   10   14 1
  21   11   12 ar
  22   11   16 ar
  23   12   13 1
  24   12   15 ar
  25   13   14 1
  26   13   32 1
  27   13   33 1
  28   14   34 1
  29   14   35 1
  30   15   36 1
  31   16   37 1
  32   17   18 am
  33   17   24 1
  34   18   25 2
  35   19   20 ar
  36   19   24 ar
  37   20   21 ar
  38   20   38 1
  39   21   22 ar
  40   21   26 1
  41   22   23 ar
  42   22   39 1
  43   23   24 ar
  44   23   40 1

#	End of record

