#	Name: ASD01901238
#	Creating user name:	WinNT
#	Creation time:	15. 06. 2019 19:53

#	Modifying user name:	WinNT
#	Modification time:	15. 06. 2019 19:53

#	Program:	/corina/corina34_cracker 3.40 0067  02.08.2006

@<TRIPOS>MOLECULE
ASD01901238
  41   44    0    0    0
SMALL
NO_CHARGES


@<TRIPOS>ATOM
   1 C1            -0.0166     1.3750     0.0096 C.ar    
   2 C2             0.0021    -0.0041     0.0020 C.ar    
   3 C3             1.2078    -0.6830    -0.0127 C.ar    
   4 C4             2.4027     0.0149    -0.0199 C.ar    
   5 C5             2.3997     1.3941    -0.0129 C.ar    
   6 C6             1.1860     2.0866     0.0019 C.ar    
   7 C7             1.1748     3.5185     0.0093 C.1     
   8 C8             1.1656     4.6925     0.0153 C.1     
   9 C9             1.1543     6.1244     0.0226 C.ar    
  10 C10           -0.0666     8.1943     0.0507 C.ar    
  11 C11           -0.0605     6.8156     0.0433 C.ar    
  12 C12            2.3585     6.8349     0.0149 C.ar    
  13 C13            2.3438     8.2124     0.0225 C.ar    
  14 C14            1.1340     8.8967     0.0377 C.ar    
  15 N15            1.1239    10.2969     0.0453 N.am    
  16 N16            1.1334    12.2913     1.3089 N.am    
  17 C17            1.1411    10.9499     1.2180 C.2     
  18 C18            1.1026    10.9673    -1.1288 C.2     
  19 C19            1.1064    13.0721     0.1739 C.ar    
  20 O20            1.0914    10.3724    -2.1892 O.2     
  21 Cl21          -1.5742     9.0546     0.0759 Cl      
  22 O22            1.1642    10.2989     2.2443 O.2     
  23 C23            1.0930    12.4373    -1.0849 C.ar    
  24 N24            1.0983    14.3962     0.2204 N.ar    
  25 C25            1.0718    13.2234    -2.2328 C.ar    
  26 N26            1.0651    14.5408    -2.0902 N.ar    
  27 C27            1.0780    15.1003    -0.8947 C.ar    
  28 C28            1.1533    12.9291     2.6276 C.3     
  29 H29           -0.9584     1.9035     0.0169 H       
  30 H30           -0.9266    -0.5554     0.0079 H       
  31 H31            1.2163    -1.7630    -0.0182 H       
  32 H32            3.3399    -0.5217    -0.0306 H       
  33 H33            3.3331     1.9375    -0.0182 H       
  34 H34           -0.9928     6.2705     0.0531 H       
  35 H35            3.2991     6.3044     0.0034 H       
  36 H36            3.2737     8.7615     0.0169 H       
  37 H37            1.0614    12.7719    -3.2138 H       
  38 H38            1.0715    16.1782    -0.8269 H       
  39 H39            1.1730    12.1621     3.4019 H       
  40 H40            2.0407    13.5560     2.7146 H       
  41 H41            0.2611    13.5436     2.7476 H       
@<TRIPOS>BOND
   1    1    2 ar
   2    1    6 ar
   3    1   29 1
   4    2    3 ar
   5    2   30 1
   6    3    4 ar
   7    3   31 1
   8    4    5 ar
   9    4   32 1
  10    5    6 ar
  11    5   33 1
  12    6    7 1
  13    7    8 3
  14    8    9 1
  15    9   12 ar
  16    9   11 ar
  17   10   11 ar
  18   10   14 ar
  19   10   21 1
  20   11   34 1
  21   12   13 ar
  22   12   35 1
  23   13   14 ar
  24   13   36 1
  25   14   15 1
  26   15   18 am
  27   15   17 am
  28   16   17 am
  29   16   19 1
  30   16   28 1
  31   17   22 2
  32   18   23 1
  33   18   20 2
  34   19   23 ar
  35   19   24 ar
  36   23   25 ar
  37   24   27 ar
  38   25   26 ar
  39   25   37 1
  40   26   27 ar
  41   27   38 1
  42   28   39 1
  43   28   40 1
  44   28   41 1

#	End of record

