#	Name: ASD06140001
#	Creating user name:	WinNT
#	Creation time:	15. 06. 2019 21:05

#	Modifying user name:	WinNT
#	Modification time:	15. 06. 2019 21:05

#	Program:	/corina/corina34_cracker 3.40 0067  02.08.2006

@<TRIPOS>MOLECULE
ASD06140001
  42   45    0    0    0
SMALL
NO_CHARGES


@<TRIPOS>ATOM
   1 N1            -0.0159     1.3177     0.0093 N.am    
   2 C2             0.0021    -0.0041     0.0020 C.2     
   3 C3            -1.2617    -0.6485     0.0106 C.2     
   4 S4            -2.4351     0.6830     0.0289 S.3     
   5 C5            -1.1968     1.9523     0.0296 C.2     
   6 C6             1.2364     2.0779     0.0014 C.3     
   7 C7             1.6586     2.3504    -1.4437 C.3     
   8 C8             2.9756     3.1501    -1.4630 C.3     
   9 O9             1.9031     1.1079    -2.1240 O.3     
  10 C10            2.9809     1.3425    -3.0557 C.3     
  11 C11            3.9521     2.2540    -2.2630 C.3     
  12 O12            1.0449    -0.6332    -0.0117 O.2     
  13 S13           -1.4565     3.6445     0.0441 S.2     
  14 C14           -1.5174    -1.9894     0.0051 C.2     
  15 C15           -2.8501    -2.4537     0.0154 C.2     
  16 O16           -3.9567    -1.6815     0.0304 O.3     
  17 C17           -5.0496    -2.4664     0.0358 C.2     
  18 C18           -4.6445    -3.7818     0.0241 C.2     
  19 C19           -3.2474    -3.7788     0.0059 C.2     
  20 C20           -6.4479    -1.9959     0.0516 C.ar    
  21 C21           -6.8569    -1.0415     0.9861 C.ar    
  22 C22           -8.1656    -0.6058     0.9948 C.ar    
  23 C23           -9.0734    -1.1118     0.0812 C.ar    
  24 C24           -8.6769    -2.0578    -0.8475 C.ar    
  25 C25           -7.3691    -2.4989    -0.8726 C.ar    
  26 Cl26          -6.8728    -3.6854    -2.0387 Cl      
  27 H27            1.0901     3.0245     0.5218 H       
  28 H28            2.0137     1.5030     0.5048 H       
  29 H29            0.8776     2.9099    -1.9586 H       
  30 H30            2.8343     4.1058    -1.9677 H       
  31 H31            3.3433     3.3041    -0.4485 H       
  32 H32            3.4673     0.4046    -3.3238 H       
  33 H33            2.6144     1.8541    -3.9456 H       
  34 H34            4.5635     2.8517    -2.9390 H       
  35 H35            4.5780     1.6653    -1.5924 H       
  36 H36           -0.6999    -2.6950    -0.0070 H       
  37 H37           -5.2851    -4.6513     0.0253 H       
  38 H38           -2.6017    -4.6445    -0.0070 H       
  39 H39           -6.1500    -0.6458     1.7004 H       
  40 H40           -8.4827     0.1320     1.7168 H       
  41 H41          -10.0968    -0.7669     0.0934 H       
  42 H42           -9.3911    -2.4488    -1.5571 H       
@<TRIPOS>BOND
   1    1    2 am
   2    1    6 1
   3    1    5 am
   4    2    3 1
   5    2   12 2
   6    3    4 1
   7    3   14 2
   8    4    5 1
   9    5   13 2
  10    6    7 1
  11    6   27 1
  12    6   28 1
  13    7    8 1
  14    7    9 1
  15    7   29 1
  16    8   11 1
  17    8   30 1
  18    8   31 1
  19    9   10 1
  20   10   11 1
  21   10   32 1
  22   10   33 1
  23   11   34 1
  24   11   35 1
  25   14   15 1
  26   14   36 1
  27   15   16 1
  28   15   19 2
  29   16   17 1
  30   17   18 2
  31   17   20 1
  32   18   19 1
  33   18   37 1
  34   19   38 1
  35   20   21 ar
  36   20   25 ar
  37   21   22 ar
  38   21   39 1
  39   22   23 ar
  40   22   40 1
  41   23   24 ar
  42   23   41 1
  43   24   25 ar
  44   24   42 1
  45   25   26 1

#	End of record

