#	Name: ASD01816743
#	Creating user name:	WinNT
#	Creation time:	15. 06. 2019 19:35

#	Modifying user name:	WinNT
#	Modification time:	15. 06. 2019 19:35

#	Program:	/corina/corina34_cracker 3.40 0067  02.08.2006

@<TRIPOS>MOLECULE
ASD01816743
  66   70    0    0    0
SMALL
NO_CHARGES


@<TRIPOS>ATOM
   1 C1            -0.0167     1.3961     0.0121 C.2     
   2 C2             0.0025    -0.0052    -0.0045 C.2     
   3 C3             1.1989    -0.6602    -0.0252 C.2     
   4 C4             2.3922     0.0815    -0.0295 C.2     
   5 N5             2.3439     1.4491    -0.0126 N.am    
   6 C6             1.1420     2.0927     0.0076 C.2     
   7 C7             3.6230    -0.5887    -0.0506 C.2     
   8 C8             4.7879     0.1231    -0.0549 C.2     
   9 C9             4.7340     1.5284    -0.0381 C.2     
  10 C10            3.4813     2.1731    -0.0167 C.2     
  11 C11            3.6605    -2.0951    -0.0679 C.3     
  12 O12            3.4256     3.3913    -0.0020 O.2     
  13 C13            5.9710     2.3159    -0.0418 C.2     
  14 N14            7.1647     1.6963     0.0459 N.am    
  15 O15            5.9198     3.5292    -0.1240 O.2     
  16 N16            3.7781    -2.5660    -1.4544 N.3     
  17 C17            4.0551    -4.0086    -1.4989 C.3     
  18 C18            4.0913    -4.4736    -2.9566 C.3     
  19 N19            5.1223    -3.7196    -3.6832 N.3     
  20 C20            4.8453    -2.2771    -3.6387 C.3     
  21 C21            4.8092    -1.8120    -2.1810 C.3     
  22 C22            5.2338    -4.1658    -4.9969 C.ar    
  23 C23            6.1588    -3.5771    -5.8540 C.ar    
  24 C24            6.2717    -4.0159    -7.1538 C.ar    
  25 C25            5.4561    -5.0546    -7.6125 C.ar    
  26 C26            4.5282    -5.6442    -6.7487 C.ar    
  27 C27            4.4240    -5.2037    -5.4487 C.ar    
  28 C28            8.4025     2.4710    -0.0711 C.3     
  29 C29            9.5343     1.7360     0.6498 C.3     
  30 C30           10.8271     2.5451     0.5276 C.3     
  31 C31           11.1869     2.7113    -0.9501 C.3     
  32 C32           10.0552     3.4464    -1.6711 C.3     
  33 C33            8.7624     2.6373    -1.5489 C.3     
  34 C34            5.5704    -5.5134    -8.9642 C.1     
  35 N35            5.6611    -5.8773   -10.0365 N.1     
  36 H36           -0.9604     1.9212     0.0240 H       
  37 H37           -0.9228    -0.5622    -0.0006 H       
  38 H38            1.2286    -1.7397    -0.0377 H       
  39 H39            1.1153     3.1723     0.0207 H       
  40 H40            5.7398    -0.3870    -0.0708 H       
  41 H41            4.5175    -2.4439     0.5082 H       
  42 H42            2.7433    -2.4864     0.3721 H       
  43 H43            7.2041     0.7373     0.1865 H       
  44 H44            5.0183    -4.2086    -1.0294 H       
  45 H45            3.2714    -4.5460    -0.9650 H       
  46 H46            4.3253    -5.5376    -2.9931 H       
  47 H47            3.1196    -4.2986    -3.4183 H       
  48 H48            5.6291    -1.7397    -4.1726 H       
  49 H49            3.8822    -2.0771    -4.1082 H       
  50 H50            4.5752    -0.7481    -2.1445 H       
  51 H51            5.7809    -1.9870    -1.7193 H       
  52 H52            6.7886    -2.7747    -5.4990 H       
  53 H53            6.9892    -3.5581    -7.8186 H       
  54 H54            3.8964    -6.4465    -7.0999 H       
  55 H55            3.7077    -5.6588    -4.7808 H       
  56 H56            8.2609     3.4527     0.3810 H       
  57 H57            9.2779     1.6176     1.7026 H       
  58 H58            9.6759     0.7543     0.1977 H       
  59 H59           10.6854     3.5268     0.9797 H       
  60 H60           11.6334     2.0215     1.0412 H       
  61 H61           12.1079     3.2878    -1.0372 H       
  62 H62           11.3286     1.7297    -1.4022 H       
  63 H63            9.9135     4.4280    -1.2190 H       
  64 H64           10.3115     3.5648    -2.7238 H       
  65 H65            8.9040     1.6556    -2.0010 H       
  66 H66            7.9561     3.1609    -2.0625 H       
@<TRIPOS>BOND
   1    1    2 1
   2    1    6 2
   3    1   36 1
   4    2    3 2
   5    2   37 1
   6    3    4 1
   7    3   38 1
   8    4    5 1
   9    4    7 2
  10    5    6 1
  11    5   10 am
  12    6   39 1
  13    7    8 1
  14    7   11 1
  15    8    9 2
  16    8   40 1
  17    9   10 1
  18    9   13 1
  19   10   12 2
  20   11   16 1
  21   11   41 1
  22   11   42 1
  23   13   15 2
  24   13   14 am
  25   14   28 1
  26   14   43 1
  27   16   17 1
  28   16   21 1
  29   17   18 1
  30   17   44 1
  31   17   45 1
  32   18   19 1
  33   18   46 1
  34   18   47 1
  35   19   20 1
  36   19   22 1
  37   20   21 1
  38   20   48 1
  39   20   49 1
  40   21   50 1
  41   21   51 1
  42   22   23 ar
  43   22   27 ar
  44   23   24 ar
  45   23   52 1
  46   24   25 ar
  47   24   53 1
  48   25   26 ar
  49   25   34 1
  50   26   27 ar
  51   26   54 1
  52   27   55 1
  53   28   29 1
  54   28   33 1
  55   28   56 1
  56   29   30 1
  57   29   57 1
  58   29   58 1
  59   30   31 1
  60   30   59 1
  61   30   60 1
  62   31   32 1
  63   31   61 1
  64   31   62 1
  65   32   33 1
  66   32   63 1
  67   32   64 1
  68   33   65 1
  69   33   66 1
  70   34   35 3

#	End of record

