#	Name: ASD02770028
#	Creating user name:	WinNT
#	Creation time:	15. 06. 2019 20:26

#	Modifying user name:	WinNT
#	Modification time:	15. 06. 2019 20:26

#	Program:	/corina/corina34_cracker 3.40 0067  02.08.2006

@<TRIPOS>MOLECULE
ASD02770028
  24   24    0    0    0
SMALL
NO_CHARGES


@<TRIPOS>ATOM
   1 C1            -0.0165     1.3674     0.0096 C.2     
   2 C2             0.0021    -0.0041     0.0020 C.2     
   3 C3             1.3433    -0.5462    -0.0137 C.2     
   4 C4             2.2832     0.3880    -0.0177 C.2     
   5 S5             1.5697     1.9909    -0.0022 S.3     
   6 C6            -1.2069    -0.8315     0.0096 C.2     
   7 O7            -2.3041    -0.3055     0.0233 O.2     
   8 N8            -1.1039    -2.1753     0.0013 N.am    
   9 C9            -2.2161    -2.9364     0.0083 C.2     
  10 O10           -3.3121    -2.4110     0.0220 O.2     
  11 N11           -2.1131    -4.2802     0.0001 N.am    
  12 N12           -1.1673     2.1402     0.0194 N.am    
  13 C13           -1.0760     3.4849     0.0262 C.2     
  14 O14            0.0129     4.0188     0.0238 O.2     
  15 C15           -2.3271     4.3250     0.0369 C.3     
  16 H16            1.5568    -1.6048    -0.0214 H       
  17 H17            3.3447     0.1896    -0.0289 H       
  18 H18           -0.2293    -2.5946    -0.0096 H       
  19 H19           -1.2385    -4.6996    -0.0109 H       
  20 H20           -2.9136    -4.8281     0.0051 H       
  21 H21           -2.0383     1.7132     0.0213 H       
  22 H22           -2.9108     4.0961     0.9285 H       
  23 H23           -2.0558     5.3807     0.0413 H       
  24 H24           -2.9195     4.1058    -0.8514 H       
@<TRIPOS>BOND
   1    1    2 2
   2    1    5 1
   3    1   12 1
   4    2    3 1
   5    2    6 1
   6    3    4 2
   7    3   16 1
   8    4    5 1
   9    4   17 1
  10    6    7 2
  11    6    8 am
  12    8    9 am
  13    8   18 1
  14    9   10 2
  15    9   11 am
  16   11   19 1
  17   11   20 1
  18   12   13 am
  19   12   21 1
  20   13   14 2
  21   13   15 1
  22   15   22 1
  23   15   23 1
  24   15   24 1

#	End of record

