#	Name: ASD05170123
#	Creating user name:	WinNT
#	Creation time:	15. 06. 2019 20:57

#	Modifying user name:	WinNT
#	Modification time:	15. 06. 2019 20:57

#	Program:	/corina/corina34_cracker 3.40 0067  02.08.2006

@<TRIPOS>MOLECULE
ASD05170123
  43   46    0    0    0
SMALL
NO_CHARGES


@<TRIPOS>ATOM
   1 C1            -0.2244     1.4601    -1.1206 C.ar    
   2 C2            -0.2358     0.0849    -1.2739 C.ar    
   3 C3             0.9615    -0.6066    -1.1385 C.ar    
   4 C4             2.1182     0.0945    -0.8569 C.ar    
   5 N5             2.0963     1.4065    -0.7164 N.ar    
   6 C6             0.9763     2.0990    -0.8381 C.ar    
   7 O7             1.0002     3.4472    -0.6855 O.3     
   8 C8             2.2655     4.0450    -0.3962 C.3     
   9 C9             2.0973     5.5365    -0.2618 C.2     
  10 C10            0.8953     6.2454    -0.3904 C.2     
  11 N11            3.0500     6.4002     0.0021 N.2     
  12 C12            1.2325     7.5540    -0.1916 C.2     
  13 C13            0.4248     8.7832    -0.1923 C.2     
  14 N14            2.5865     7.5871     0.0597 N.pl3   
  15 C15            3.2736     8.8504     0.3542 C.3     
  16 C16            2.5572     9.9929    -0.3644 C.3     
  17 N17            1.1093     9.9526    -0.1732 N.am    
  18 O18           -0.7911     8.7518    -0.2096 O.2     
  19 C19            3.2533     9.1034     1.8630 C.3     
  20 Cl20           1.0036    -2.3325    -1.3204 Cl      
  21 C21            0.4145    11.1480     0.0397 C.ar    
  22 C22           -0.1822    11.4060     1.2685 C.ar    
  23 N23           -0.8397    12.5288     1.4814 N.ar    
  24 C24           -0.9626    13.4521     0.5504 C.ar    
  25 C25           -0.3940    13.2722    -0.7119 C.ar    
  26 C26            0.3170    12.0952    -0.9729 C.ar    
  27 C27           -0.5305    14.2786    -1.7214 C.1     
  28 N28           -0.6388    15.0769    -2.5222 N.1     
  29 H29           -1.1362     2.0297    -1.2236 H       
  30 H30           -1.1544    -0.4388    -1.4935 H       
  31 H31            3.0518    -0.4378    -0.7502 H       
  32 H32            2.6549     3.6377     0.5369 H       
  33 H33            2.9628     3.8294    -1.2058 H       
  34 H34           -0.0849     5.8441    -0.6014 H       
  35 H35            4.3055     8.7929     0.0079 H       
  36 H36            2.9363    10.9414     0.0162 H       
  37 H37            2.7754     9.9306    -1.4305 H       
  38 H38            3.7610     8.2861     2.3753 H       
  39 H39            3.7636    10.0416     2.0810 H       
  40 H40            2.2209     9.1627     2.2077 H       
  41 H41           -0.1064    10.6757     2.0604 H       
  42 H42           -1.5096    14.3581     0.7656 H       
  43 H43            0.7737    11.9254    -1.9367 H       
@<TRIPOS>BOND
   1    1    2 ar
   2    1    6 ar
   3    1   29 1
   4    2    3 ar
   5    2   30 1
   6    3    4 ar
   7    3   20 1
   8    4    5 ar
   9    4   31 1
  10    5    6 ar
  11    6    7 1
  12    7    8 1
  13    8    9 1
  14    8   32 1
  15    8   33 1
  16    9   11 2
  17    9   10 1
  18   10   12 2
  19   10   34 1
  20   11   14 1
  21   12   14 1
  22   12   13 1
  23   13   17 am
  24   13   18 2
  25   14   15 1
  26   15   16 1
  27   15   19 1
  28   15   35 1
  29   16   17 1
  30   16   36 1
  31   16   37 1
  32   17   21 1
  33   19   38 1
  34   19   39 1
  35   19   40 1
  36   21   22 ar
  37   21   26 ar
  38   22   23 ar
  39   22   41 1
  40   23   24 ar
  41   24   25 ar
  42   24   42 1
  43   25   26 ar
  44   25   27 1
  45   26   43 1
  46   27   28 3

#	End of record

