#	Name: ASD01231380
#	Creating user name:	WinNT
#	Creation time:	15. 06. 2019 19:15

#	Modifying user name:	WinNT
#	Modification time:	15. 06. 2019 19:15

#	Program:	/corina/corina34_cracker 3.40 0067  02.08.2006

@<TRIPOS>MOLECULE
ASD01231380
  47   49    0    0    0
SMALL
NO_CHARGES


@<TRIPOS>ATOM
   1 C1            -0.0225     1.8097     0.0120 C.3     
   2 S2             0.0021    -0.0041     0.0020 S.o2    
   3 O3             0.8448    -0.4970     1.0346 O.2     
   4 O4            -1.3093    -0.5195    -0.1821 O.2     
   5 N5             0.7961    -0.3989    -1.3965 N.am    
   6 C6             3.1205    -1.2324    -1.2000 C.3     
   7 C7             2.2072    -0.0423    -1.5633 C.3     
   8 C8             2.5422     0.1898    -3.0520 C.3     
   9 C9             3.9539    -0.3281    -3.2258 C.ar    
  10 C10            4.8749    -0.1022    -4.2353 C.ar    
  11 C11            6.1231    -0.6906    -4.1817 C.ar    
  12 C12            6.4554    -1.5080    -3.1173 C.ar    
  13 C13            5.5385    -1.7344    -2.1098 C.ar    
  14 C14            4.2861    -1.1453    -2.1617 C.ar    
  15 C15            7.1222    -0.4416    -5.2820 C.3     
  16 C16            7.9553     0.7668    -4.9402 C.ar    
  17 C17            9.1286     0.6175    -4.2242 C.ar    
  18 C18            9.8926     1.7257    -3.9106 C.ar    
  19 C19            9.4837     2.9836    -4.3133 C.ar    
  20 C20            8.3113     3.1328    -5.0297 C.ar    
  21 C21            7.5493     2.0237    -5.3472 C.ar    
  22 C22            7.8654     4.5039    -5.4682 C.3     
  23 F23            8.7941     5.4567    -5.0359 F       
  24 F24            7.7748     4.5407    -6.8638 F       
  25 F25            6.6134     4.7872    -4.9119 F       
  26 C26           11.1710     1.5631    -3.1294 C.3     
  27 O27           12.2598     1.3653    -4.0335 O.3     
  28 H28            1.0001     2.1870     0.0043 H       
  29 H29           -0.5497     2.1708    -0.8711 H       
  30 H30           -0.5327     2.1613     0.9088 H       
  31 H31            0.3269    -0.8662    -2.1053 H       
  32 H32            3.4707    -1.1403    -0.1719 H       
  33 H33            2.5875    -2.1734    -1.3360 H       
  34 H34            2.4592     0.8353    -0.9681 H       
  35 H35            1.8537    -0.3687    -3.6862 H       
  36 H36            2.4976     1.2529    -3.2885 H       
  37 H37            4.6159     0.5359    -5.0672 H       
  38 H38            7.4310    -1.9692    -3.0739 H       
  39 H39            5.7988    -2.3730    -1.2786 H       
  40 H40            7.7703    -1.3115    -5.3881 H       
  41 H41            6.5942    -0.2655    -6.2192 H       
  42 H42            9.4479    -0.3651    -3.9097 H       
  43 H43           10.0804     3.8497    -4.0676 H       
  44 H44            6.6350     2.1399    -5.9103 H       
  45 H45           11.3502     2.4592    -2.5353 H       
  46 H46           11.0858     0.7002    -2.4689 H       
  47 H47           13.1163     1.2530    -3.5990 H       
@<TRIPOS>BOND
   1    1    2 1
   2    1   28 1
   3    1   29 1
   4    1   30 1
   5    2    3 2
   6    2    4 2
   7    2    5 am
   8    5    7 1
   9    5   31 1
  10    6    7 1
  11    6   14 1
  12    6   32 1
  13    6   33 1
  14    7    8 1
  15    7   34 1
  16    8    9 1
  17    8   35 1
  18    8   36 1
  19    9   10 ar
  20    9   14 ar
  21   10   11 ar
  22   10   37 1
  23   11   12 ar
  24   11   15 1
  25   12   13 ar
  26   12   38 1
  27   13   14 ar
  28   13   39 1
  29   15   16 1
  30   15   40 1
  31   15   41 1
  32   16   17 ar
  33   16   21 ar
  34   17   18 ar
  35   17   42 1
  36   18   19 ar
  37   18   26 1
  38   19   20 ar
  39   19   43 1
  40   20   21 ar
  41   20   22 1
  42   21   44 1
  43   22   23 1
  44   22   24 1
  45   22   25 1
  46   26   27 1
  47   26   45 1
  48   26   46 1
  49   27   47 1

#	End of record

