#	Name: ASD01811947
#	Creating user name:	WinNT
#	Creation time:	15. 06. 2019 19:27

#	Modifying user name:	WinNT
#	Modification time:	15. 06. 2019 19:27

#	Program:	/corina/corina34_cracker 3.40 0067  02.08.2006

@<TRIPOS>MOLECULE
ASD01811947
  55   59    0    0    0
SMALL
NO_CHARGES


@<TRIPOS>ATOM
   1 N1            -0.0158     1.3119     0.0093 N.ar    
   2 C2             0.0021    -0.0041     0.0020 C.ar    
   3 C3             1.1918    -0.7176    -0.0132 C.ar    
   4 C4             2.3959    -0.0364    -0.0210 C.ar    
   5 C5             2.3566     1.3581    -0.0131 C.ar    
   6 C6             1.1089     2.0209     0.0023 C.ar    
   7 C7             2.1879     4.0734     0.0022 C.2     
   8 N8             1.0918     3.3766     0.0093 N.2     
   9 C9             3.5779     2.1745    -0.0215 C.2     
  10 N10            3.4268     3.5199    -0.0137 N.am    
  11 C11            4.6094     4.3845    -0.0213 C.3     
  12 C12            4.6084     5.2610     1.2328 C.3     
  13 C13            5.8435     6.1640     1.2249 C.3     
  14 C14            5.8166     7.0540    -0.0194 C.3     
  15 C15            5.8176     6.1775    -1.2734 C.3     
  16 C16            4.5825     5.2745    -1.2655 C.3     
  17 O17            4.6818     1.6617    -0.0344 O.2     
  18 C18            1.1726    -2.2244    -0.0206 C.3     
  19 C19            1.1523    -2.7196    -1.4438 C.ar    
  20 C20           -0.0500    -2.9281    -2.0928 C.ar    
  21 C21            2.3409    -2.9649    -2.1171 C.ar    
  22 C22            2.2790    -3.4183    -3.4231 C.ar    
  23 C23            1.0322    -3.6120    -4.0141 C.ar    
  24 N24           -0.0811    -3.3609    -3.3373 N.ar    
  25 O25            4.6336     4.4297     2.3949 O.3     
  26 C26            0.9488    -4.0971    -5.4134 C.2     
  27 C27            2.0314    -4.4938    -6.2234 C.2     
  28 N28            1.5568    -4.8560    -7.3854 N.2     
  29 N29            0.1649    -4.7064    -7.3642 N.pl3   
  30 C30           -0.1914    -4.2462    -6.1493 C.2     
  31 C31           -0.7476    -5.0043    -8.4710 C.3     
  32 H32           -0.9340    -0.5427     0.0084 H       
  33 H33            3.3364    -0.5673    -0.0325 H       
  34 H34            2.1091     5.1505     0.0080 H       
  35 H35            5.5091     3.7694    -0.0340 H       
  36 H36            3.7087     5.8761     1.2455 H       
  37 H37            5.8429     6.7884     2.1183 H       
  38 H38            6.7433     5.5488     1.2122 H       
  39 H39            4.9169     7.6691    -0.0067 H       
  40 H40            6.6965     7.6973    -0.0250 H       
  41 H41            5.7984     6.8115    -2.1599 H       
  42 H42            6.7173     5.5624    -1.2861 H       
  43 H43            4.5832     4.6501    -2.1589 H       
  44 H44            3.6828     5.8897    -1.2528 H       
  45 H45            2.0628    -2.6016     0.4827 H       
  46 H46            0.2831    -2.5790     0.5001 H       
  47 H47           -0.9766    -2.7342    -1.5730 H       
  48 H48            3.2929    -2.8052    -1.6327 H       
  49 H49            3.1845    -3.6190    -3.9765 H       
  50 H50            4.6344     4.9194     3.2288 H       
  51 H51            3.0720    -4.4975    -5.9342 H       
  52 H52           -1.1969    -4.0322    -5.8180 H       
  53 H53           -1.0727    -6.0425    -8.4044 H       
  54 H54           -1.6154    -4.3474    -8.4132 H       
  55 H55           -0.2334    -4.8446    -9.4187 H       
@<TRIPOS>BOND
   1    1    2 ar
   2    1    6 ar
   3    2    3 ar
   4    2   32 1
   5    3    4 ar
   6    3   18 1
   7    4    5 ar
   8    4   33 1
   9    5    9 1
  10    5    6 ar
  11    6    8 1
  12    7    8 2
  13    7   10 1
  14    7   34 1
  15    9   10 am
  16    9   17 2
  17   10   11 1
  18   11   12 1
  19   11   16 1
  20   11   35 1
  21   12   13 1
  22   12   25 1
  23   12   36 1
  24   13   14 1
  25   13   37 1
  26   13   38 1
  27   14   15 1
  28   14   39 1
  29   14   40 1
  30   15   16 1
  31   15   41 1
  32   15   42 1
  33   16   43 1
  34   16   44 1
  35   18   19 1
  36   18   45 1
  37   18   46 1
  38   19   21 ar
  39   19   20 ar
  40   20   24 ar
  41   20   47 1
  42   21   22 ar
  43   21   48 1
  44   22   23 ar
  45   22   49 1
  46   23   24 ar
  47   23   26 1
  48   25   50 1
  49   26   27 1
  50   26   30 2
  51   27   28 2
  52   27   51 1
  53   28   29 1
  54   29   30 1
  55   29   31 1
  56   30   52 1
  57   31   53 1
  58   31   54 1
  59   31   55 1

#	End of record

