#	Name: ASD05720305
#	Creating user name:	WinNT
#	Creation time:	15. 06. 2019 21:02

#	Modifying user name:	WinNT
#	Modification time:	15. 06. 2019 21:02

#	Program:	/corina/corina34_cracker 3.40 0067  02.08.2006

@<TRIPOS>MOLECULE
ASD05720305
  62   66    0    0    0
SMALL
NO_CHARGES


@<TRIPOS>ATOM
   1 N1            -0.1018     1.5939    -0.5692 N.am    
   2 C2            -0.1738     0.2765    -1.2060 C.3     
   3 C3             1.0542     2.2866    -0.5825 C.2     
   4 O4             2.0374     1.8181    -1.1231 O.2     
   5 N5             1.1205     3.4985     0.0033 N.am    
   6 C6             2.3437     4.1670     0.0886 C.ar    
   7 C7             2.3855     5.5532    -0.0133 C.ar    
   8 C8             3.5907     6.2152     0.0701 C.ar    
   9 C9             4.7707     5.4932     0.2575 C.ar    
  10 C10            4.7255     4.1017     0.3599 C.ar    
  11 C11            3.5167     3.4455     0.2810 C.ar    
  12 C12            7.4555     7.9354    -0.2980 C.ar    
  13 N13            6.2957     7.2949    -0.3735 N.ar    
  14 C14            6.0667     6.2013     0.3469 C.ar    
  15 C15            7.0883     5.7322     1.1989 C.ar    
  16 C16            8.3030     6.4467     1.2447 C.ar    
  17 N17            8.4403     7.5315     0.4866 N.ar    
  18 N18            9.1051     5.7916     2.1322 N.pl3   
  19 N19            8.3997     4.6885     2.6292 N.2     
  20 C20            7.2155     4.6441     2.0884 C.2     
  21 N21            7.6436     9.0659    -1.0742 N.3     
  22 C22            7.8011    10.2618    -0.2338 C.3     
  23 C23            7.9463    11.4939    -1.1310 C.3     
  24 O24            9.0534    11.3048    -2.0164 O.3     
  25 C25            8.9327    10.1492    -2.8503 C.3     
  26 C26            8.7975     8.9035    -1.9706 C.3     
  27 C27            6.5703    10.4234     0.6606 C.3     
  28 C28           11.9788     6.7750     4.3976 C.3     
  29 C29           10.5342     6.4514     4.0074 C.3     
  30 C30           10.4697     6.1757     2.5020 C.3     
  31 C31           11.4333     5.0349     2.1613 C.3     
  32 C32           12.8432     5.4132     2.6228 C.3     
  33 O33           12.8266     5.6865     4.0253 O.3     
  34 H34           -0.8873     1.9694    -0.1415 H       
  35 H35            0.0640     0.3716    -2.2655 H       
  36 H36            0.5414    -0.3957    -0.7320 H       
  37 H37           -1.1803    -0.1266    -1.0943 H       
  38 H38            0.3185     3.9065     0.3657 H       
  39 H39            1.4723     6.1112    -0.1582 H       
  40 H40            3.6227     7.2918    -0.0098 H       
  41 H41            5.6368     3.5405     0.5046 H       
  42 H42            3.4807     2.3693     0.3642 H       
  43 H43            6.4586     3.8997     2.2870 H       
  44 H44            8.6912    10.1562     0.3864 H       
  45 H45            7.0345    11.6303    -1.7123 H       
  46 H46            8.1205    12.3752    -0.5136 H       
  47 H47            8.0495    10.2466    -3.4817 H       
  48 H48            9.8203    10.0580    -3.4765 H       
  49 H49            9.7035     8.7762    -1.3782 H       
  50 H50            8.6480     8.0271    -2.6012 H       
  51 H51            6.5156     9.5873     1.3578 H       
  52 H52            6.6464    11.3569     1.2181 H       
  53 H53            5.6723    10.4410     0.0432 H       
  54 H54           12.3008     7.6795     3.8815 H       
  55 H55           12.0383     6.9302     5.4748 H       
  56 H56           10.1980     5.5703     4.5539 H       
  57 H57            9.8928     7.2986     4.2504 H       
  58 H58           10.7569     7.0733     1.9543 H       
  59 H59           11.1152     4.1251     2.6705 H       
  60 H60           11.4349     4.8689     1.0840 H       
  61 H61           13.5254     4.5872     2.4215 H       
  62 H62           13.1765     6.2998     2.0835 H       
@<TRIPOS>BOND
   1    1    2 1
   2    1    3 am
   3    1   34 1
   4    2   35 1
   5    2   36 1
   6    2   37 1
   7    3    4 2
   8    3    5 am
   9    5    6 1
  10    5   38 1
  11    6    7 ar
  12    6   11 ar
  13    7    8 ar
  14    7   39 1
  15    8    9 ar
  16    8   40 1
  17    9   10 ar
  18    9   14 1
  19   10   11 ar
  20   10   41 1
  21   11   42 1
  22   12   13 ar
  23   12   17 ar
  24   12   21 1
  25   13   14 ar
  26   14   15 ar
  27   15   16 ar
  28   15   20 1
  29   16   17 ar
  30   16   18 1
  31   18   19 1
  32   18   30 1
  33   19   20 2
  34   20   43 1
  35   21   22 1
  36   21   26 1
  37   22   23 1
  38   22   27 1
  39   22   44 1
  40   23   24 1
  41   23   45 1
  42   23   46 1
  43   24   25 1
  44   25   26 1
  45   25   47 1
  46   25   48 1
  47   26   49 1
  48   26   50 1
  49   27   51 1
  50   27   52 1
  51   27   53 1
  52   28   29 1
  53   28   33 1
  54   28   54 1
  55   28   55 1
  56   29   30 1
  57   29   56 1
  58   29   57 1
  59   30   31 1
  60   30   58 1
  61   31   32 1
  62   31   59 1
  63   31   60 1
  64   32   33 1
  65   32   61 1
  66   32   62 1

#	End of record

