#	Name: ASD01916417
#	Creating user name:	WinNT
#	Creation time:	15. 06. 2019 20:07

#	Modifying user name:	WinNT
#	Modification time:	15. 06. 2019 20:07

#	Program:	/corina/corina34_cracker 3.40 0067  02.08.2006

@<TRIPOS>MOLECULE
ASD01916417
  36   37    0    0    0
SMALL
NO_CHARGES


@<TRIPOS>ATOM
   1 C1            -0.0557     1.4818     0.2614 C.2     
   2 C2            -0.0597    -0.0251     0.2489 C.3     
   3 C3             1.3501    -0.5413     0.5437 C.3     
   4 C4             1.3463    -2.0132     0.5315 C.1     
   5 C5             1.3432    -3.1872     0.5218 C.1     
   6 O6             0.9735     2.0837     0.4842 O.2     
   7 N7            -1.1946     2.1607     0.0195 N.am    
   8 C8             1.3394    -4.6191     0.5099 C.ar    
   9 C9             2.5228    -5.3167     0.7553 C.ar    
  10 C10            2.5028    -6.6999     0.7403 C.ar    
  11 C11            1.3002    -7.3428     0.4804 C.ar    
  12 C12            0.1648    -6.5896     0.2455 C.ar    
  13 N13            0.2086    -5.2731     0.2706 N.ar    
  14 C14           -2.4108     1.4386    -0.3621 C.3     
  15 C15           -1.2153     3.5563     0.1328 C.ar    
  16 C16           -0.4996     4.3374    -0.7646 C.ar    
  17 C17           -0.5213     5.7137    -0.6511 C.ar    
  18 C18           -1.2563     6.3146     0.3570 C.ar    
  19 C19           -1.9708     5.5374     1.2531 C.ar    
  20 C20           -1.9563     4.1610     1.1394 C.ar    
  21 F21           -1.2759     7.6610     0.4667 F       
  22 H22           -0.7478    -0.3930     1.0099 H       
  23 H23           -0.3787    -0.3795    -0.7313 H       
  24 H24            2.0383    -0.1734    -0.2173 H       
  25 H25            1.6692    -0.1869     1.5239 H       
  26 H26            3.4413    -4.7843     0.9538 H       
  27 H27            3.4029    -7.2670     0.9264 H       
  28 H28            1.2520    -8.4215     0.4615 H       
  29 H29           -0.7720    -7.0874     0.0427 H       
  30 H30           -2.9731     1.1752     0.5337 H       
  31 H31           -3.0239     2.0726    -1.0026 H       
  32 H32           -2.1403     0.5308    -0.9014 H       
  33 H33            0.0741     3.8690    -1.5508 H       
  34 H34            0.0356     6.3216    -1.3487 H       
  35 H35           -2.5431     6.0080     2.0388 H       
  36 H36           -2.5173     3.5554     1.8358 H       
@<TRIPOS>BOND
   1    1    2 1
   2    1    6 2
   3    1    7 am
   4    2    3 1
   5    2   22 1
   6    2   23 1
   7    3    4 1
   8    3   24 1
   9    3   25 1
  10    4    5 3
  11    5    8 1
  12    7   14 1
  13    7   15 1
  14    8    9 ar
  15    8   13 ar
  16    9   10 ar
  17    9   26 1
  18   10   11 ar
  19   10   27 1
  20   11   12 ar
  21   11   28 1
  22   12   13 ar
  23   12   29 1
  24   14   30 1
  25   14   31 1
  26   14   32 1
  27   15   16 ar
  28   15   20 ar
  29   16   17 ar
  30   16   33 1
  31   17   18 ar
  32   17   34 1
  33   18   19 ar
  34   18   21 1
  35   19   20 ar
  36   19   35 1
  37   20   36 1

#	End of record

