#	Name: ASD00844749
#	Creating user name:	WinNT
#	Creation time:	15. 06. 2019 18:50

#	Modifying user name:	WinNT
#	Modification time:	15. 06. 2019 18:50

#	Program:	/corina/corina34_cracker 3.40 0067  02.08.2006

@<TRIPOS>MOLECULE
ASD00844749
  94   99    0    0    0
SMALL
NO_CHARGES


@<TRIPOS>ATOM
   1 C1             0.5719     1.3014    -0.7523 C.ar    
   2 C2             0.8812    -0.0388    -0.9320 C.ar    
   3 C3             0.8102    -0.9149     0.1417 C.ar    
   4 C4             0.4319    -0.4507     1.3864 C.ar    
   5 C5             0.1236     0.8858     1.5628 C.ar    
   6 C6             0.1940     1.7607     0.4948 C.ar    
   7 C7             1.1450    -2.3716    -0.0502 C.3     
   8 C8             0.8685    -3.1511     1.2178 C.2     
   9 C9             0.3508    -2.9533    -1.2214 C.3     
  10 C10           -1.1193    -2.7018    -1.0056 C.2     
  11 N11           -2.0195    -3.1599    -1.8980 N.am    
  12 O12           -1.4924    -2.0872    -0.0289 O.2     
  13 C13           -3.4430    -2.8205    -1.7669 C.3     
  14 C14           -4.2614    -4.1154    -1.7749 C.3     
  15 C15           -3.9205    -4.9218    -3.0302 C.3     
  16 C16           -2.4350    -5.2893    -3.0147 C.3     
  17 C17           -1.5951    -4.0030    -3.0239 C.3     
  18 C18           -4.7615    -6.1996    -3.0592 C.3     
  19 C19           -6.2482    -5.8335    -3.0765 C.3     
  20 C20           -7.0826    -7.1131    -3.1669 C.3     
  21 N21           -6.7264    -7.8460    -4.3886 N.3     
  22 C22           -5.3145    -8.2494    -4.3731 C.3     
  23 C23           -4.4273    -7.0037    -4.3187 C.3     
  24 H24           -7.3292    -8.6444    -4.5200 H       
  25 O25           -0.2066    -3.2787     1.7645 O.2     
  26 N26            2.0367    -3.6756     1.6233 N.am    
  27 C27            2.6298    -2.5493    -0.2727 C.ar    
  28 C28            3.0893    -3.3439     0.7748 C.ar    
  29 C29            3.4862    -2.0936    -1.2427 C.ar    
  30 C30            4.8439    -2.4282    -1.1856 C.ar    
  31 C31            5.3129    -3.2267    -0.1355 C.ar    
  32 C32            4.4421    -3.6793     0.8324 C.ar    
  33 F33            6.6218    -3.5552    -0.0714 F       
  34 C34            1.9573    -6.2857     2.4927 C.ar    
  35 C35            0.7172    -6.6945     2.0236 C.ar    
  36 C36            2.9994    -7.1899     2.5729 C.ar    
  37 C37            2.8094    -8.5025     2.1861 C.ar    
  38 C38            1.5707    -8.9163     1.7162 C.ar    
  39 C39            0.5238    -8.0114     1.6352 C.ar    
  40 O40            1.3843   -10.2077     1.3363 O.3     
  41 O41           -0.3073    -5.8050     1.9453 O.3     
  42 C42            2.5068   -11.0850     1.4470 C.3     
  43 C43           -1.5560    -6.2953     1.4532 C.3     
  44 C44           -2.5799    -5.1585     1.4374 C.3     
  45 S45            2.2058    -4.6106     2.9796 S.o2    
  46 O46            3.5673    -4.5048     3.3728 O.2     
  47 O47            1.1216    -4.2764     3.8352 O.2     
  48 O48            1.2527    -0.4932    -2.1577 O.3     
  49 C49            1.2170     0.4446    -3.2354 C.3     
  50 C50            1.7307    -0.2253    -4.5115 C.3     
  51 F51            3.0136    -0.7358    -4.2862 F       
  52 F52            0.8699    -1.2683    -4.8696 F       
  53 C53            5.7461    -1.9581    -2.1934 C.1     
  54 N54            6.4618    -1.5852    -2.9929 N.1     
  55 H55            0.6307     1.9860    -1.5854 H       
  56 H56            0.3765    -1.1322     2.2224 H       
  57 H57           -0.1726     1.2466     2.5367 H       
  58 H58           -0.0472     2.8040     0.6352 H       
  59 H59            0.6687    -2.4764    -2.1485 H       
  60 H60            0.5303    -4.0266    -1.2847 H       
  61 H61           -3.6073    -2.2902    -0.8288 H       
  62 H62           -3.7470    -2.1908    -2.6030 H       
  63 H63           -4.0214    -4.7030    -0.8888 H       
  64 H64           -5.3243    -3.8741    -1.7751 H       
  65 H65           -4.1376    -4.3243    -3.9157 H       
  66 H66           -2.2122    -5.8659    -2.1169 H       
  67 H67           -2.1980    -5.8835    -3.8973 H       
  68 H68           -1.7496    -3.4724    -3.9633 H       
  69 H69           -0.5403    -4.2546    -2.9131 H       
  70 H70           -4.5441    -6.7988    -2.1750 H       
  71 H71           -6.5016    -5.2976    -2.1618 H       
  72 H72           -6.4572    -5.2010    -3.9392 H       
  73 H73           -6.8834    -7.7389    -2.2969 H       
  74 H74           -8.1413    -6.8552    -3.1938 H       
  75 H75           -5.1236    -8.8698    -3.4975 H       
  76 H76           -5.0890    -8.8167    -5.2761 H       
  77 H77           -4.6076    -6.3896    -5.2010 H       
  78 H78           -3.3798    -7.3039    -4.2915 H       
  79 H79            3.1136    -1.4786    -2.0485 H       
  80 H80            4.8092    -4.2951     1.6401 H       
  81 H81            3.9640    -6.8698     2.9383 H       
  82 H82            3.6255    -9.2070     2.2491 H       
  83 H83           -0.4409    -8.3316     1.2702 H       
  84 H84            2.2227   -12.0826     1.1121 H       
  85 H85            3.3220   -10.7121     0.8270 H       
  86 H86            2.8320   -11.1296     2.4864 H       
  87 H87           -1.4227    -6.6783     0.4414 H       
  88 H88           -1.9125    -7.0964     2.1008 H       
  89 H89           -3.5324    -5.5325     1.0620 H       
  90 H90           -2.7132    -4.7756     2.4492 H       
  91 H91           -2.2234    -4.3575     0.7898 H       
  92 H92            0.1922     0.7822    -3.3896 H       
  93 H93            1.8488     1.2994    -2.9942 H       
  94 H94            1.7678     0.5081    -5.3171 H       
@<TRIPOS>BOND
   1    1    2 ar
   2    1    6 ar
   3    1   55 1
   4    2    3 ar
   5    2   48 1
   6    3    4 ar
   7    3    7 1
   8    4    5 ar
   9    4   56 1
  10    5    6 ar
  11    5   57 1
  12    6   58 1
  13    7    8 1
  14    7    9 1
  15    7   27 1
  16    8   25 2
  17    8   26 am
  18    9   10 1
  19    9   59 1
  20    9   60 1
  21   10   11 am
  22   10   12 2
  23   11   13 1
  24   11   17 1
  25   13   14 1
  26   13   61 1
  27   13   62 1
  28   14   15 1
  29   14   63 1
  30   14   64 1
  31   15   16 1
  32   15   18 1
  33   15   65 1
  34   16   17 1
  35   16   66 1
  36   16   67 1
  37   17   68 1
  38   17   69 1
  39   18   19 1
  40   18   23 1
  41   18   70 1
  42   19   20 1
  43   19   71 1
  44   19   72 1
  45   20   21 1
  46   20   73 1
  47   20   74 1
  48   21   22 1
  49   21   24 1
  50   22   23 1
  51   22   75 1
  52   22   76 1
  53   23   77 1
  54   23   78 1
  55   26   45 am
  56   26   28 1
  57   27   28 ar
  58   27   29 ar
  59   28   32 ar
  60   29   30 ar
  61   29   79 1
  62   30   31 ar
  63   30   53 1
  64   31   32 ar
  65   31   33 1
  66   32   80 1
  67   34   35 ar
  68   34   36 ar
  69   34   45 1
  70   35   41 1
  71   35   39 ar
  72   36   37 ar
  73   36   81 1
  74   37   38 ar
  75   37   82 1
  76   38   39 ar
  77   38   40 1
  78   39   83 1
  79   40   42 1
  80   41   43 1
  81   42   84 1
  82   42   85 1
  83   42   86 1
  84   43   44 1
  85   43   87 1
  86   43   88 1
  87   44   89 1
  88   44   90 1
  89   44   91 1
  90   45   46 2
  91   45   47 2
  92   48   49 1
  93   49   50 1
  94   49   92 1
  95   49   93 1
  96   50   51 1
  97   50   52 1
  98   50   94 1
  99   53   54 3

#	End of record

