#	Name: ASD01001132
#	Creating user name:	WinNT
#	Creation time:	15. 06. 2019 18:55

#	Modifying user name:	WinNT
#	Modification time:	15. 06. 2019 18:55

#	Program:	/corina/corina34_cracker 3.40 0067  02.08.2006

@<TRIPOS>MOLECULE
ASD01001132
  46   48    0    0    0
SMALL
NO_CHARGES


@<TRIPOS>ATOM
   1 C1            -0.0218     1.7541     0.0117 C.2     
   2 S2             0.0021    -0.0041     0.0020 S.3     
   3 C3             1.7080    -0.0274    -0.0144 C.2     
   4 C4             2.2038     1.2156    -0.0125 C.2     
   5 C5             1.2638     2.2184     0.0019 C.2     
   6 C6            -1.2266     2.5877     0.0222 C.2     
   7 O7            -1.1272     3.8008     0.0278 O.2     
   8 N8            -2.4449     2.0114     0.0255 N.am    
   9 C9            -5.3430     4.5865     0.0536 C.2     
  10 C10           -5.8746     3.3675     0.0503 C.2     
  11 C11           -4.8603     2.3171     0.0396 C.2     
  12 C12           -3.5839     2.7995     0.0354 C.2     
  13 S13           -3.5818     4.5004     0.0441 S.3     
  14 C14           -5.1812     0.8867     0.0344 C.2     
  15 O15           -5.3202     0.2981    -1.0219 O.2     
  16 N16           -5.3224     0.2235     1.1991 N.am    
  17 C17           -5.1551     0.9320     2.4704 C.3     
  18 C18           -6.5043     1.4945     2.9222 C.3     
  19 C19           -4.3473    -2.0194     1.1828 C.3     
  20 C20           -5.6431    -1.2059     1.1939 C.3     
  21 C21           -6.4390     5.6453     0.0591 C.3     
  22 C22           -7.7126     4.8996    -0.3878 C.3     
  23 C23           -7.3981     3.4561     0.0587 C.3     
  24 C24           -8.9468     5.4384     0.3385 C.3     
  25 H25            2.3077    -0.9256    -0.0244 H       
  26 H26            3.2650     1.4161    -0.0212 H       
  27 H27            1.5159     3.2686     0.0051 H       
  28 H28           -2.5241     1.0446     0.0210 H       
  29 H29           -4.7785     0.2411     3.2247 H       
  30 H30           -4.4459     1.7495     2.3402 H       
  31 H31           -7.2135     0.6770     3.0525 H       
  32 H32           -6.3798     2.0216     3.8681 H       
  33 H33           -6.8808     2.1855     2.1680 H       
  34 H34           -4.5860    -3.0829     1.1789 H       
  35 H35           -3.7713    -1.7730     0.2909 H       
  36 H36           -3.7615    -1.7817     2.0708 H       
  37 H37           -6.2192    -1.4523     2.0858 H       
  38 H38           -6.2289    -1.4436     0.3059 H       
  39 H39           -6.5695     6.0508     1.0625 H       
  40 H40           -6.1997     6.4424    -0.6447 H       
  41 H41           -7.8406     4.9584    -1.4686 H       
  42 H42           -7.8199     2.7406    -0.6471 H       
  43 H43           -7.7875     3.2759     1.0607 H       
  44 H44           -9.0807     6.4922     0.0944 H       
  45 H45           -9.8270     4.8778     0.0239 H       
  46 H46           -8.8118     5.3290     1.4145 H       
@<TRIPOS>BOND
   1    1    2 1
   2    1    5 2
   3    1    6 1
   4    2    3 1
   5    3    4 2
   6    3   25 1
   7    4    5 1
   8    4   26 1
   9    5   27 1
  10    6    7 2
  11    6    8 am
  12    8   12 1
  13    8   28 1
  14    9   10 2
  15    9   13 1
  16    9   21 1
  17   10   11 1
  18   10   23 1
  19   11   12 2
  20   11   14 1
  21   12   13 1
  22   14   15 2
  23   14   16 am
  24   16   17 1
  25   16   20 1
  26   17   18 1
  27   17   29 1
  28   17   30 1
  29   18   31 1
  30   18   32 1
  31   18   33 1
  32   19   20 1
  33   19   34 1
  34   19   35 1
  35   19   36 1
  36   20   37 1
  37   20   38 1
  38   21   22 1
  39   21   39 1
  40   21   40 1
  41   22   23 1
  42   22   24 1
  43   22   41 1
  44   23   42 1
  45   23   43 1
  46   24   44 1
  47   24   45 1
  48   24   46 1

#	End of record

