#	Name: ASD01418058
#	Creating user name:	WinNT
#	Creation time:	15. 06. 2019 19:20

#	Modifying user name:	WinNT
#	Modification time:	15. 06. 2019 19:20

#	Program:	/corina/corina34_cracker 3.40 0067  02.08.2006

@<TRIPOS>MOLECULE
ASD01418058
  59   64    0    0    0
SMALL
NO_CHARGES


@<TRIPOS>ATOM
   1 C1            -0.0169     1.3953     0.0097 C.ar    
   2 C2             0.0021    -0.0041     0.0020 C.ar    
   3 C3            -1.1472    -0.7482    -0.0055 C.ar    
   4 C4            -2.3601    -0.0380    -0.0029 C.ar    
   5 C5            -2.3874     1.3713     0.0301 C.ar    
   6 C6            -1.2190     2.1184     0.0309 C.ar    
   7 C7            -3.6973    -0.4507    -0.0424 C.2     
   8 C8            -4.5014     0.6552     0.0974 C.2     
   9 N9            -3.7175     1.7736     0.0723 N.pl3   
  10 C10           -5.9618     0.5240     0.2924 C.ar    
  11 C11           -6.4444    -0.5847     0.9953 C.ar    
  12 C12           -7.7903    -0.8212     1.1512 C.ar    
  13 C13           -8.7026     0.0855     0.6373 C.ar    
  14 C14           -8.2459     1.2184     0.0003 C.ar    
  15 C15           -6.8854     1.4710    -0.1662 C.ar    
  16 C16           -4.1031    -1.8825    -0.2795 C.3     
  17 C17           -3.5746    -2.3440    -1.6391 C.3     
  18 C18           -3.9865    -3.7977    -1.8798 C.3     
  19 C19           -3.4009    -4.6829    -0.7778 C.3     
  20 C20           -3.9294    -4.2214     0.5819 C.3     
  21 C21           -3.5175    -2.7677     0.8225 C.3     
  22 C22            1.2612     2.1294     0.0015 C.2     
  23 O23            2.4268     1.4529    -0.0133 O.3     
  24 C24           -3.9939     3.2060     0.0614 C.3     
  25 C25           -6.5043     2.7322    -0.7697 C.3     
  26 C26           -5.4305     3.6229    -0.1928 C.3     
  27 C27           -5.7399     3.4893    -1.7239 C.3     
  28 C28           -5.8790     4.8814     0.5031 C.2     
  29 O29           -5.0140     5.8911     0.6877 O.3     
  30 O30           -7.0175     4.9820     0.8950 O.2     
  31 F31          -10.0284    -0.1397     0.7575 F       
  32 O32            1.2641     3.3446     0.0080 O.2     
  33 C33            3.6463     2.2410    -0.0207 C.3     
  34 H34            0.9538    -0.5151     0.0034 H       
  35 H35           -1.1190    -1.8272    -0.0080 H       
  36 H36           -1.2321     3.1982     0.0395 H       
  37 H37           -5.7618    -1.2574     1.4951 H       
  38 H38           -8.1286    -1.7070     1.6680 H       
  39 H39           -8.9664     1.9285    -0.3790 H       
  40 H40           -5.1904    -1.9588    -0.2674 H       
  41 H41           -3.9918    -1.7134    -2.4242 H       
  42 H42           -2.4873    -2.2677    -1.6512 H       
  43 H43           -5.0738    -3.8740    -1.8677 H       
  44 H44           -3.6100    -4.1264    -2.8484 H       
  45 H45           -3.6944    -5.7185    -0.9492 H       
  46 H46           -2.3136    -4.6066    -0.7898 H       
  47 H47           -5.0167    -4.2977     0.5940 H       
  48 H48           -3.5122    -4.8520     1.3670 H       
  49 H49           -2.4302    -2.6914     0.8104 H       
  50 H50           -3.8940    -2.4389     1.7912 H       
  51 H51           -3.6799     3.6223     1.0189 H       
  52 H52           -3.3725     3.6599    -0.7153 H       
  53 H53           -7.4478     3.2757    -0.7974 H       
  54 H54           -5.0205     2.9502    -2.3406 H       
  55 H55           -6.2342     4.3312    -2.2115 H       
  56 H56           -5.3479     6.6783     1.1392 H       
  57 H57            4.5091     1.5751    -0.0325 H       
  58 H58            3.6641     2.8745    -0.9075 H       
  59 H59            3.6811     2.8650     0.8723 H       
@<TRIPOS>BOND
   1    1    2 ar
   2    1   22 1
   3    1    6 ar
   4    2    3 ar
   5    2   34 1
   6    3    4 ar
   7    3   35 1
   8    4    5 ar
   9    4    7 1
  10    5    6 ar
  11    5    9 1
  12    6   36 1
  13    7    8 2
  14    7   16 1
  15    8    9 1
  16    8   10 1
  17    9   24 1
  18   10   11 ar
  19   10   15 ar
  20   11   12 ar
  21   11   37 1
  22   12   13 ar
  23   12   38 1
  24   13   14 ar
  25   13   31 1
  26   14   15 ar
  27   14   39 1
  28   15   25 1
  29   16   17 1
  30   16   21 1
  31   16   40 1
  32   17   18 1
  33   17   41 1
  34   17   42 1
  35   18   19 1
  36   18   43 1
  37   18   44 1
  38   19   20 1
  39   19   45 1
  40   19   46 1
  41   20   21 1
  42   20   47 1
  43   20   48 1
  44   21   49 1
  45   21   50 1
  46   22   23 1
  47   22   32 2
  48   23   33 1
  49   24   26 1
  50   24   51 1
  51   24   52 1
  52   25   26 1
  53   25   27 1
  54   25   53 1
  55   26   27 1
  56   26   28 1
  57   27   54 1
  58   27   55 1
  59   28   29 1
  60   28   30 2
  61   29   56 1
  62   33   57 1
  63   33   58 1
  64   33   59 1

#	End of record

