#	Name: ASD01940524
#	Creating user name:	WinNT
#	Creation time:	15. 06. 2019 20:12

#	Modifying user name:	WinNT
#	Modification time:	15. 06. 2019 20:12

#	Program:	/corina/corina34_cracker 3.40 0067  02.08.2006

@<TRIPOS>MOLECULE
ASD01940524
  36   38    0    0    0
SMALL
NO_CHARGES


@<TRIPOS>ATOM
   1 C1            -0.4801     1.4821     0.1420 C.2     
   2 C2            -0.6067     0.1551     0.1908 C.2     
   3 C3             0.5876    -0.5429     0.2612 C.2     
   4 C4             1.6838     0.2192     0.2695 C.2     
   5 S5             1.2241     1.9147     0.1851 S.3     
   6 S6            -1.8160     2.6266     0.0420 S.o2    
   7 O7            -1.9662     2.9488    -1.3338 O.2     
   8 O8            -2.8661     2.0877     0.8332 O.2     
   9 N9            -1.3278     4.0171     0.7973 N.am    
  10 C10           -0.2139     4.7202     0.3191 C.ar    
  11 C11            0.6464     5.3572     1.2126 C.ar    
  12 C12            1.7485     6.0518     0.7334 C.ar    
  13 C13            1.9902     6.1101    -0.6303 C.ar    
  14 C14            1.1345     5.4774    -1.5151 C.ar    
  15 C15            0.0380     4.7790    -1.0430 C.ar    
  16 N16            0.3987     5.2966     2.5909 N.pl3   
  17 C17            0.9951     6.2250     3.4499 C.ar    
  18 C18            0.5325     7.5368     3.4885 C.ar    
  19 C19            1.1245     8.4513     4.3394 C.ar    
  20 C20            2.1757     8.0627     5.1512 C.ar    
  21 C21            2.6373     6.7596     5.1140 C.ar    
  22 C22            2.0462     5.8387     4.2703 C.ar    
  23 I23            3.0706     9.4520     6.4388 I       
  24 F24           -0.4932     7.9162     2.6952 F       
  25 F25            3.0629     6.7863    -1.0965 F       
  26 F26            2.5846     6.6709     1.5953 F       
  27 Cl27           3.3137    -0.3730     0.3511 Cl      
  28 Br28          -2.2893    -0.7077     0.1664 Br      
  29 H29            0.6289    -1.6211     0.3063 H       
  30 H30           -1.8128     4.3449     1.5707 H       
  31 H31            1.3258     5.5258    -2.5770 H       
  32 H32           -0.6249     4.2825    -1.7362 H       
  33 H33           -0.1863     4.6106     2.9489 H       
  34 H34            0.7666     9.4698     4.3704 H       
  35 H35            3.4584     6.4603     5.7485 H       
  36 H36            2.4048     4.8203     4.2457 H       
@<TRIPOS>BOND
   1    1    2 2
   2    1    5 1
   3    1    6 1
   4    2    3 1
   5    2   28 1
   6    3    4 2
   7    3   29 1
   8    4    5 1
   9    4   27 1
  10    6    7 2
  11    6    8 2
  12    6    9 am
  13    9   10 1
  14    9   30 1
  15   10   11 ar
  16   10   15 ar
  17   11   12 ar
  18   11   16 1
  19   12   13 ar
  20   12   26 1
  21   13   14 ar
  22   13   25 1
  23   14   15 ar
  24   14   31 1
  25   15   32 1
  26   16   17 1
  27   16   33 1
  28   17   18 ar
  29   17   22 ar
  30   18   19 ar
  31   18   24 1
  32   19   20 ar
  33   19   34 1
  34   20   21 ar
  35   20   23 1
  36   21   22 ar
  37   21   35 1
  38   22   36 1

#	End of record

