#	Name: ASD01883195
#	Creating user name:	WinNT
#	Creation time:	15. 06. 2019 19:45

#	Modifying user name:	WinNT
#	Modification time:	15. 06. 2019 19:45

#	Program:	/corina/corina34_cracker 3.40 0067  02.08.2006

@<TRIPOS>MOLECULE
ASD01883195
  53   56    0    0    0
SMALL
NO_CHARGES


@<TRIPOS>ATOM
   1 C1            -0.0182     1.4710     0.0474 C.2     
   2 C2             0.0011    -0.0035     0.0451 C.ar    
   3 C3             1.2427    -0.6611     0.0068 C.ar    
   4 N4             2.4140     0.0665    -0.0281 N.pl3   
   5 C5             2.4357     1.4071    -0.0277 C.2     
   6 C6             1.2805     2.1609     0.0090 C.2     
   7 C7             3.6324    -0.6245    -0.0652 C.ar    
   8 C8             4.2002    -0.9664    -1.2848 C.ar    
   9 C9             5.4011    -1.6476    -1.3209 C.ar    
  10 C10            6.0410    -1.9911    -0.1389 C.ar    
  11 C11            5.4754    -1.6510     1.0817 C.ar    
  12 C12            4.2769    -0.9635     1.1203 C.ar    
  13 C13           -1.1823    -0.7406     0.0804 C.ar    
  14 C14           -1.1271    -2.1170     0.0776 C.ar    
  15 C15            0.0974    -2.7683     0.0403 C.ar    
  16 C16            1.2744    -2.0529     0.0042 C.ar    
  17 O17           -1.0665     2.0921     0.0748 O.2     
  18 C18            1.3466     3.6308     0.0086 C.2     
  19 O19            2.4234     4.1912     0.0860 O.2     
  20 N20            0.2140     4.3562    -0.0775 N.am    
  21 O21            7.2227    -2.6619    -0.1764 O.3     
  22 C22           -2.4025    -2.9190     0.1156 C.3     
  23 C23           -2.8779    -3.1892    -1.3133 C.3     
  24 C24           -4.1532    -3.9911    -1.2752 C.ar    
  25 N25           -6.4856    -4.0979    -1.2045 N.ar    
  26 C26           -6.4160    -5.4140    -1.2078 C.ar    
  27 N27           -5.2607    -6.0475    -1.2378 N.ar    
  28 C28           -4.1204    -5.3767    -1.2716 C.ar    
  29 C29           -5.3870    -3.3608    -1.2372 C.ar    
  30 C30           -7.6914    -6.2160    -1.1697 C.3     
  31 C31            7.8262    -2.9836     1.0783 C.3     
  32 F32            3.7286    -0.6266     2.3082 F       
  33 H33            3.3891     1.9138    -0.0558 H       
  34 H34            3.7026    -0.7001    -2.2056 H       
  35 H35            5.8423    -1.9133    -2.2702 H       
  36 H36            5.9740    -1.9191     2.0014 H       
  37 H37           -2.1363    -0.2352     0.1102 H       
  38 H38            0.1284    -3.8479     0.0391 H       
  39 H39            2.2212    -2.5717    -0.0250 H       
  40 H40           -0.6370     3.9121    -0.2171 H       
  41 H41            0.2498     5.3224     0.0001 H       
  42 H42           -2.2210    -3.8663     0.6234 H       
  43 H43           -3.1677    -2.3593     0.6534 H       
  44 H44           -3.0594    -2.2419    -1.8211 H       
  45 H45           -2.1126    -3.7489    -1.8511 H       
  46 H46           -3.1770    -5.9019    -1.2965 H       
  47 H47           -5.4510    -2.2827    -1.2340 H       
  48 H48           -8.0300    -6.4084    -2.1878 H       
  49 H49           -7.5099    -7.1633    -0.6620 H       
  50 H50           -8.4566    -5.6563    -0.6319 H       
  51 H51            8.0279    -2.0658     1.6304 H       
  52 H52            7.1499    -3.6139     1.6557 H       
  53 H53            8.7612    -3.5167     0.9056 H       
@<TRIPOS>BOND
   1    1    2 1
   2    1    6 1
   3    1   17 2
   4    2    3 ar
   5    2   13 ar
   6    3    4 1
   7    3   16 ar
   8    4    5 1
   9    4    7 1
  10    5    6 2
  11    5   33 1
  12    6   18 1
  13    7    8 ar
  14    7   12 ar
  15    8    9 ar
  16    8   34 1
  17    9   10 ar
  18    9   35 1
  19   10   11 ar
  20   10   21 1
  21   11   12 ar
  22   11   36 1
  23   12   32 1
  24   13   14 ar
  25   13   37 1
  26   14   15 ar
  27   14   22 1
  28   15   16 ar
  29   15   38 1
  30   16   39 1
  31   18   19 2
  32   18   20 am
  33   20   40 1
  34   20   41 1
  35   21   31 1
  36   22   23 1
  37   22   42 1
  38   22   43 1
  39   23   24 1
  40   23   44 1
  41   23   45 1
  42   24   29 ar
  43   24   28 ar
  44   25   26 ar
  45   25   29 ar
  46   26   27 ar
  47   26   30 1
  48   27   28 ar
  49   28   46 1
  50   29   47 1
  51   30   48 1
  52   30   49 1
  53   30   50 1
  54   31   51 1
  55   31   52 1
  56   31   53 1

#	End of record

