#	Name: ASD03330395
#	Creating user name:	WinNT
#	Creation time:	15. 06. 2019 20:37

#	Modifying user name:	WinNT
#	Modification time:	15. 06. 2019 20:37

#	Program:	/corina/corina34_cracker 3.40 0067  02.08.2006

@<TRIPOS>MOLECULE
ASD03330395
  53   55    0    0    0
SMALL
NO_CHARGES


@<TRIPOS>ATOM
   1 C1            -0.0179     1.4665     0.0101 C.3     
   2 N2             0.0021    -0.0041     0.0020 N.am    
   3 C3             0.5757    -0.6835    -1.1754 C.3     
   4 C4             1.8363     0.0608    -1.5407 C.2     
   5 N5             2.1944     1.2621    -1.0071 N.pl3   
   6 C6             1.4215     1.9935    -0.0008 C.3     
   7 C7             2.8055    -0.2966    -2.4207 C.2     
   8 N8             3.7378     0.6830    -2.4237 N.2     
   9 C9             3.3771     1.6222    -1.5796 C.2     
  10 C10            4.1292     2.8646    -1.2979 C.ar    
  11 C11            5.1502     3.2748    -2.1559 C.ar    
  12 C12            2.8367    -1.5297    -3.2269 C.2     
  13 O13            1.9340    -2.3395    -3.1348 O.2     
  14 C14            3.8967    -2.9860    -4.8679 C.3     
  15 N15            3.8656    -1.7601    -4.0664 N.am    
  16 C16           -0.4887    -0.7102     1.0397 C.2     
  17 O17           -0.4633    -1.9248     1.0143 O.2     
  18 C18            5.8482     4.4341    -1.8882 C.ar    
  19 C19            5.5373     5.1903    -0.7706 C.ar    
  20 C20            4.5251     4.7880     0.0843 C.ar    
  21 C21            3.8165     3.6335    -0.1764 C.ar    
  22 O22           -1.0073    -0.0699     2.1045 O.3     
  23 C23           -1.5175    -0.8944     3.1854 C.3     
  24 C24            5.3203    -5.4925    -5.6399 C.3     
  25 C25            5.1939    -4.2810    -6.5657 C.3     
  26 C26            5.1614    -3.0007    -5.7287 C.3     
  27 Cl27           6.4204     6.6478    -0.4398 Cl      
  28 C28            6.3918    -4.2385    -7.5166 C.3     
  29 H29           -0.5443     1.8280    -0.8732 H       
  30 H30           -0.5273     1.8184     0.9071 H       
  31 H31            0.8127    -1.7185    -0.9291 H       
  32 H32           -0.1302    -0.6497    -2.0053 H       
  33 H33            1.4184     3.0558    -0.2451 H       
  34 H34            1.8707     1.8462     0.9813 H       
  35 H35            5.3937     2.6857    -3.0277 H       
  36 H36            3.8972    -3.8525    -4.2066 H       
  37 H37            3.0182    -3.0212    -5.5122 H       
  38 H38            4.5856    -1.1143    -4.1399 H       
  39 H39            6.6389     4.7525    -2.5515 H       
  40 H40            4.2869     5.3816     0.9546 H       
  41 H41            3.0272     3.3207     0.4911 H       
  42 H42           -0.7129    -1.5148     3.5800 H       
  43 H43           -1.9054    -0.2548     3.9782 H       
  44 H44           -2.3173    -1.5324     2.8093 H       
  45 H45            4.4669    -5.5228    -4.9625 H       
  46 H46            5.3434    -6.4046    -6.2363 H       
  47 H47            6.2408    -5.4132    -5.0614 H       
  48 H48            4.2735    -4.3603    -7.1442 H       
  49 H49            5.1609    -2.1342    -6.3900 H       
  50 H50            6.0399    -2.9655    -5.0844 H       
  51 H51            6.4149    -5.1506    -8.1129 H       
  52 H52            6.3017    -3.3754    -8.1761 H       
  53 H53            7.3122    -4.1592    -6.9381 H       
@<TRIPOS>BOND
   1    1    2 1
   2    1    6 1
   3    1   29 1
   4    1   30 1
   5    2    3 1
   6    2   16 am
   7    3    4 1
   8    3   31 1
   9    3   32 1
  10    4    5 1
  11    4    7 2
  12    5    6 1
  13    5    9 1
  14    6   33 1
  15    6   34 1
  16    7    8 1
  17    7   12 1
  18    8    9 2
  19    9   10 1
  20   10   11 ar
  21   10   21 ar
  22   11   18 ar
  23   11   35 1
  24   12   13 2
  25   12   15 am
  26   14   15 1
  27   14   26 1
  28   14   36 1
  29   14   37 1
  30   15   38 1
  31   16   17 2
  32   16   22 1
  33   18   19 ar
  34   18   39 1
  35   19   20 ar
  36   19   27 1
  37   20   21 ar
  38   20   40 1
  39   21   41 1
  40   22   23 1
  41   23   42 1
  42   23   43 1
  43   23   44 1
  44   24   25 1
  45   24   45 1
  46   24   46 1
  47   24   47 1
  48   25   26 1
  49   25   28 1
  50   25   48 1
  51   26   49 1
  52   26   50 1
  53   28   51 1
  54   28   52 1
  55   28   53 1

#	End of record

