#	Name: ASD09860001
#	Creating user name:	WinNT
#	Creation time:	15. 06. 2019 21:24

#	Modifying user name:	WinNT
#	Modification time:	15. 06. 2019 21:24

#	Program:	/corina/corina34_cracker 3.40 0067  02.08.2006

@<TRIPOS>MOLECULE
ASD09860001
  40   42    0    0    0
SMALL
NO_CHARGES


@<TRIPOS>ATOM
   1 C1             0.5565     0.8232     0.3113 C.ar    
   2 C2             0.6575    -0.5629     0.4722 C.ar    
   3 C3            -0.4883    -1.3346     0.5174 C.ar    
   4 C4            -1.7320    -0.7403     0.4037 C.ar    
   5 C5            -1.8410     0.6293     0.2444 C.ar    
   6 C6            -0.7058     1.4167     0.2028 C.ar    
   7 F7             1.8714    -1.1455     0.5826 F       
   8 F8            -0.8145     2.7543     0.0472 F       
   9 C9             1.7739     1.6550     0.2624 C.2     
  10 N10            2.2868     2.1663     1.3991 N.am    
  11 O11            2.3147     1.8793    -0.8034 O.2     
  12 C12            3.4429     2.9562     1.3527 C.2     
  13 C13            4.1657     3.2934     0.1970 C.2     
  14 N14            4.0365     3.5150     2.3810 N.2     
  15 N15            5.1542     4.2168     1.9118 N.pl3   
  16 C16            5.2109     4.0654     0.5718 C.2     
  17 C17            6.0949     4.9844     2.7316 C.3     
  18 C18            5.3359     5.9898     3.5588 C.ar    
  19 C19            5.0461     7.2361     3.0354 C.ar    
  20 C20            4.9255     5.6620     4.8381 C.ar    
  21 C21            4.2293     6.5815     5.5981 C.ar    
  22 C22            3.9418     7.8349     5.0770 C.ar    
  23 C23            4.3504     8.1595     3.7918 C.ar    
  24 O24            3.2566     8.7412     5.8227 O.3     
  25 C25            5.4899     7.5879     1.6389 C.3     
  26 F26            5.1027     8.8993     1.3430 F       
  27 F27            6.8821     7.4816     1.5513 F       
  28 F28            4.8968     6.7093     0.7259 F       
  29 H29           -0.4123    -2.4047     0.6415 H       
  30 H30           -2.6233    -1.3492     0.4391 H       
  31 H31           -2.8161     1.0851     0.1560 H       
  32 H32            1.8554     1.9874     2.2493 H       
  33 H33            3.9291     2.9897    -0.8121 H       
  34 H34            5.9582     4.4861    -0.0846 H       
  35 H35            6.6384     4.3077     3.3909 H       
  36 H36            6.8002     5.5052     2.0840 H       
  37 H37            5.1492     4.6861     5.2430 H       
  38 H38            3.9087     6.3249     6.5970 H       
  39 H39            4.1281     9.1346     3.3841 H       
  40 H40            3.8197     9.3128     6.3623 H       
@<TRIPOS>BOND
   1    1    2 ar
   2    1    9 1
   3    1    6 ar
   4    2    3 ar
   5    2    7 1
   6    3    4 ar
   7    3   29 1
   8    4    5 ar
   9    4   30 1
  10    5    6 ar
  11    5   31 1
  12    6    8 1
  13    9   10 am
  14    9   11 2
  15   10   12 1
  16   10   32 1
  17   12   13 1
  18   12   14 2
  19   13   16 2
  20   13   33 1
  21   14   15 1
  22   15   16 1
  23   15   17 1
  24   16   34 1
  25   17   18 1
  26   17   35 1
  27   17   36 1
  28   18   19 ar
  29   18   20 ar
  30   19   25 1
  31   19   23 ar
  32   20   21 ar
  33   20   37 1
  34   21   22 ar
  35   21   38 1
  36   22   23 ar
  37   22   24 1
  38   23   39 1
  39   24   40 1
  40   25   26 1
  41   25   27 1
  42   25   28 1

#	End of record

