#	Name: ASD01810611
#	Creating user name:	WinNT
#	Creation time:	15. 06. 2019 19:24

#	Modifying user name:	WinNT
#	Modification time:	15. 06. 2019 19:24

#	Program:	/corina/corina34_cracker 3.40 0067  02.08.2006

@<TRIPOS>MOLECULE
ASD01810611
  62   65    0    0    0
SMALL
NO_CHARGES


@<TRIPOS>ATOM
   1 N1            -0.0183     1.3812    -0.4583 N.am    
   2 C2             0.1668     0.3061    -1.2497 C.2     
   3 O3             1.2581     0.0945    -1.7423 O.2     
   4 N4            -0.8577    -0.5345    -1.4950 N.am    
   5 C5            -0.6565    -1.7032    -2.3553 C.3     
   6 C6            -1.6821    -2.7963    -2.0077 C.3     
   7 C7            -2.5142    -3.0415    -3.2834 C.3     
   8 C8            -1.5921    -2.5694    -4.4349 C.3     
   9 C9            -0.9011    -1.3222    -3.8300 C.3     
  10 C10            1.0683     2.1957    -0.1187 C.ar    
  11 C11            0.8813     3.5595     0.0730 C.ar    
  12 C12            1.9510     4.3680     0.4081 C.ar    
  13 C13            3.2121     3.8266     0.5545 C.ar    
  14 C14            3.4102     2.4581     0.3646 C.ar    
  15 C15            2.3294     1.6412     0.0320 C.ar    
  16 C16           -0.4923     4.1587    -0.0854 C.3     
  17 C17            4.7602     1.8753     0.5204 C.2     
  18 O18            4.9104     0.8518     1.1587 O.2     
  19 N19            5.8241     2.4790    -0.0453 N.am    
  20 C20            7.1560     1.8618     0.0175 C.3     
  21 C21            7.7170     1.7540    -1.4040 C.3     
  22 C22            7.6947     3.1351    -2.0629 C.3     
  23 C23            6.2517     3.6375    -2.1499 C.3     
  24 C24            5.6731     3.7638    -0.7418 C.3     
  25 F25            8.4539     4.0282    -1.2992 F       
  26 C26            8.2775     3.0394    -3.4494 C.ar    
  27 C27            8.6500     4.1904    -4.1208 C.ar    
  28 C28            9.1841     4.1100    -5.3901 C.ar    
  29 C29            9.3488     2.8634    -5.9971 C.ar    
  30 C30            8.9711     1.7058    -5.3136 C.ar    
  31 C31            8.4428     1.8005    -4.0428 C.ar    
  32 C32            9.9021     2.7724    -7.3147 C.1     
  33 N33           10.3411     2.7002    -8.3600 N.1     
  34 H34           -0.9052     1.5929    -0.1274 H       
  35 H35           -1.7283    -0.3657    -1.1020 H       
  36 H36            0.3558    -2.0879    -2.2312 H       
  37 H37           -1.1676    -3.7118    -1.7159 H       
  38 H38           -2.3296    -2.4573    -1.1991 H       
  39 H39           -2.7456    -4.1013    -3.3901 H       
  40 H40           -3.4298    -2.4505    -3.2612 H       
  41 H41           -0.8579    -3.3365    -4.6811 H       
  42 H42           -2.1784    -2.2984    -5.3129 H       
  43 H43           -1.5561    -0.4535    -3.8960 H       
  44 H44            0.0447    -1.1272    -4.3356 H       
  45 H45            1.7996     5.4272     0.5554 H       
  46 H46            4.0456     4.4618     0.8157 H       
  47 H47            2.4758     0.5808    -0.1118 H       
  48 H48           -1.0108     4.1374     0.8731 H       
  49 H49           -0.4017     5.1900    -0.4266 H       
  50 H50           -1.0580     3.5822    -0.8174 H       
  51 H51            7.8168     2.4798     0.6253 H       
  52 H52            7.0773     0.8668     0.4556 H       
  53 H53            8.7424     1.3868    -1.3635 H       
  54 H54            7.1055     1.0638    -1.9851 H       
  55 H55            6.2343     4.6108    -2.6404 H       
  56 H56            5.6540     2.9295    -2.7240 H       
  57 H57            4.6163     4.0235    -0.8044 H       
  58 H58            6.2105     4.5401    -0.1972 H       
  59 H59            8.5220     5.1540    -3.6501 H       
  60 H60            9.4738     5.0093    -5.9134 H       
  61 H61            9.0958     0.7384    -5.7772 H       
  62 H62            8.1541     0.9057    -3.5113 H       
@<TRIPOS>BOND
   1    1    2 am
   2    1   10 1
   3    1   34 1
   4    2    3 2
   5    2    4 am
   6    4    5 1
   7    4   35 1
   8    5    6 1
   9    5    9 1
  10    5   36 1
  11    6    7 1
  12    6   37 1
  13    6   38 1
  14    7    8 1
  15    7   39 1
  16    7   40 1
  17    8    9 1
  18    8   41 1
  19    8   42 1
  20    9   43 1
  21    9   44 1
  22   10   11 ar
  23   10   15 ar
  24   11   12 ar
  25   11   16 1
  26   12   13 ar
  27   12   45 1
  28   13   14 ar
  29   13   46 1
  30   14   15 ar
  31   14   17 1
  32   15   47 1
  33   16   48 1
  34   16   49 1
  35   16   50 1
  36   17   18 2
  37   17   19 am
  38   19   20 1
  39   19   24 1
  40   20   21 1
  41   20   51 1
  42   20   52 1
  43   21   22 1
  44   21   53 1
  45   21   54 1
  46   22   23 1
  47   22   25 1
  48   22   26 1
  49   23   24 1
  50   23   55 1
  51   23   56 1
  52   24   57 1
  53   24   58 1
  54   26   27 ar
  55   26   31 ar
  56   27   28 ar
  57   27   59 1
  58   28   29 ar
  59   28   60 1
  60   29   30 ar
  61   29   32 1
  62   30   31 ar
  63   30   61 1
  64   31   62 1
  65   32   33 3

#	End of record

