#	Name: ASD03330261
#	Creating user name:	WinNT
#	Creation time:	15. 06. 2019 20:36

#	Modifying user name:	WinNT
#	Modification time:	15. 06. 2019 20:36

#	Program:	/corina/corina34_cracker 3.40 0067  02.08.2006

@<TRIPOS>MOLECULE
ASD03330261
  57   59    0    0    0
SMALL
NO_CHARGES


@<TRIPOS>ATOM
   1 C1             0.0048    -0.3354     0.9077 C.3     
   2 N2             0.0182    -1.7254     0.4308 N.3     
   3 C3             0.4942    -1.8065    -0.9620 C.3     
   4 C4             1.7811    -1.0288    -1.0596 C.2     
   5 N5             2.2013    -0.1407    -0.1128 N.pl3   
   6 C6             1.4430     0.1611     1.1044 C.3     
   7 C7             2.7216    -1.0478    -2.0363 C.2     
   8 N8             3.6999    -0.1832    -1.6817 N.2     
   9 C9             3.3930     0.3638    -0.5266 C.2     
  10 C10            4.2083     1.3612     0.2007 C.ar    
  11 C11            5.2427     2.0313    -0.4534 C.ar    
  12 C12            2.6847    -1.8632    -3.2632 C.2     
  13 O13            1.7454    -2.6074    -3.4707 O.2     
  14 C14            3.6551    -2.5950    -5.3751 C.3     
  15 N15            3.6918    -1.7843    -4.1554 N.am    
  16 C16            5.9996     2.9603     0.2298 C.ar    
  17 C17            5.7345     3.2284     1.5622 C.ar    
  18 C18            4.7092     2.5665     2.2164 C.ar    
  19 C19            3.9420     1.6396     1.5417 C.ar    
  20 C20            2.8433    -1.8661    -6.4477 C.3     
  21 C21            5.0600    -2.8174    -5.8729 C.2     
  22 C22            3.4172    -0.4632    -6.6562 C.3     
  23 C23            2.9162    -2.6473    -7.7612 C.3     
  24 C24            1.3847    -1.7588    -5.9984 C.3     
  25 O25            5.9351    -2.0259    -5.5925 O.2     
  26 N26            5.3440    -3.8958    -6.6298 N.am    
  27 C27            6.7288    -4.1736    -7.0187 C.3     
  28 C28           -1.3074    -2.3428     0.5710 C.3     
  29 Cl29           6.6916     4.3984     2.4158 Cl      
  30 H30           -0.4988     0.2944     0.1743 H       
  31 H31           -0.5295    -0.2830     1.8564 H       
  32 H32            0.6716    -2.8479    -1.2307 H       
  33 H33           -0.2495    -1.3741    -1.6314 H       
  34 H34            1.4401     1.2371     1.2786 H       
  35 H35            1.8950    -0.3486     1.9553 H       
  36 H36            5.4505     1.8227    -1.4925 H       
  37 H37            3.1900    -3.5567    -5.1583 H       
  38 H38            4.4409    -1.1908    -3.9899 H       
  39 H39            6.8008     3.4793    -0.2754 H       
  40 H40            4.5069     2.7795     3.2557 H       
  41 H41            3.1426     1.1239     2.0529 H       
  42 H42            4.4564    -0.5396    -6.9762 H       
  43 H43            2.8389     0.0561    -7.4203 H       
  44 H44            3.3653     0.0933    -5.7204 H       
  45 H45            2.4738    -3.6337    -7.6223 H       
  46 H46            2.3686    -2.1092    -8.5349 H       
  47 H47            3.9582    -2.7555    -8.0622 H       
  48 H48            1.3328    -1.2023    -5.0626 H       
  49 H49            0.8064    -1.2395    -6.7626 H       
  50 H50            0.9759    -2.7583    -5.8499 H       
  51 H51            4.6314    -4.4880    -6.9169 H       
  52 H52            6.7614    -5.0795    -7.6241 H       
  53 H53            7.1188    -3.3360    -7.5970 H       
  54 H54            7.3366    -4.3121    -6.1246 H       
  55 H55           -2.0466    -1.7401     0.0434 H       
  56 H56           -1.2873    -3.3466     0.1467 H       
  57 H57           -1.5718    -2.3999     1.6269 H       
@<TRIPOS>BOND
   1    1    2 1
   2    1    6 1
   3    1   30 1
   4    1   31 1
   5    2    3 1
   6    2   28 1
   7    3    4 1
   8    3   32 1
   9    3   33 1
  10    4    5 1
  11    4    7 2
  12    5    6 1
  13    5    9 1
  14    6   34 1
  15    6   35 1
  16    7    8 1
  17    7   12 1
  18    8    9 2
  19    9   10 1
  20   10   11 ar
  21   10   19 ar
  22   11   16 ar
  23   11   36 1
  24   12   13 2
  25   12   15 am
  26   14   15 1
  27   14   21 1
  28   14   20 1
  29   14   37 1
  30   15   38 1
  31   16   17 ar
  32   16   39 1
  33   17   18 ar
  34   17   29 1
  35   18   19 ar
  36   18   40 1
  37   19   41 1
  38   20   22 1
  39   20   23 1
  40   20   24 1
  41   21   25 2
  42   21   26 am
  43   22   42 1
  44   22   43 1
  45   22   44 1
  46   23   45 1
  47   23   46 1
  48   23   47 1
  49   24   48 1
  50   24   49 1
  51   24   50 1
  52   26   27 1
  53   26   51 1
  54   27   52 1
  55   27   53 1
  56   27   54 1
  57   28   55 1
  58   28   56 1
  59   28   57 1

#	End of record

