#	Name: ASD01830030
#	Creating user name:	WinNT
#	Creation time:	15. 06. 2019 19:36

#	Modifying user name:	WinNT
#	Modification time:	15. 06. 2019 19:36

#	Program:	/corina/corina34_cracker 3.40 0067  02.08.2006

@<TRIPOS>MOLECULE
ASD01830030
  69   76    0    0    0
SMALL
NO_CHARGES


@<TRIPOS>ATOM
   1 N1             0.4737     1.8832    -0.4247 N.am    
   2 C2             0.6007     0.5584    -0.6414 C.2     
   3 C3            -0.5638    -0.3615    -0.4091 C.3     
   4 C4            -1.6060     0.1694     0.5731 C.3     
   5 C5            -1.3528     1.6050     0.9531 C.3     
   6 C6            -0.9030     2.4370    -0.2358 C.3     
   7 C7            -2.3655     2.2932     1.8203 C.3     
   8 C8            -1.6966     3.5634     2.3759 C.3     
   9 C9            -1.4530     4.4999     1.2111 C.3     
  10 C10           -0.7046     3.9126     0.0354 C.3     
  11 C11            1.3991     2.8739    -0.1897 C.ar    
  12 C12            0.7862     4.0941     0.1170 C.ar    
  13 C13            1.5146     5.2300     0.4201 C.ar    
  14 C14            2.9020     5.1243     0.3921 C.ar    
  15 C15            3.5237     3.9245     0.0717 C.ar    
  16 C16            2.7958     2.7807    -0.2232 C.ar    
  17 O17            1.6592     0.1078    -1.0259 O.2     
  18 N18           -2.7139     5.0521     0.7002 N.4     
  19 C19           -3.5666     2.7054     1.0115 C.2     
  20 C20           -3.7797     4.0866     0.5091 C.3     
  21 C21           -1.1921     4.7561    -1.1730 C.3     
  22 O22           -2.9056     0.0055    -0.0047 O.3     
  23 C23           -4.3812     1.7483     0.6310 C.2     
  24 C24           -4.0004     0.3123     0.8636 C.3     
  25 H25           -0.4654     1.5575     1.5843 H       
  26 H26           -2.6620     1.6382     2.6396 H       
  27 H27           -1.5646    -0.4373     1.4776 H       
  28 H28           -1.5332     2.2609    -1.1076 H       
  29 H29           -0.8685     5.3413     1.5831 H       
  30 C30           -2.3867     5.5738    -0.6568 C.3     
  31 O31            3.6620     6.2147     0.6830 O.3     
  32 C32            2.9682     7.4219     1.0049 C.3     
  33 O33            4.8823     3.8692     0.0471 O.3     
  34 C34            5.4745     2.6125    -0.2881 C.3     
  35 C35           -3.1737     6.1407     1.5729 C.3     
  36 C36           -4.4046     6.7752     0.9785 C.ar    
  37 C37           -5.6594     6.3799     1.4026 C.ar    
  38 C38           -6.7885     6.9619     0.8573 C.ar    
  39 C39           -6.6627     7.9396    -0.1118 C.ar    
  40 C40           -5.4078     8.3356    -0.5352 C.ar    
  41 C41           -4.2787     7.7567     0.0131 C.ar    
  42 H42           -1.0534    -0.5470    -1.3651 H       
  43 H43           -0.1840    -1.3103    -0.0301 H       
  44 H44           -2.3545     4.0403     3.1024 H       
  45 H45           -0.7484     3.3058     2.8477 H       
  46 H46            1.0267     6.1611     0.6681 H       
  47 H47            3.2887     1.8520    -0.4704 H       
  48 H48           -4.6750     4.4806     0.9901 H       
  49 H49           -3.9831     4.0235    -0.5599 H       
  50 H50           -0.3985     5.4223    -1.5113 H       
  51 H51           -1.5068     4.1017    -1.9859 H       
  52 H52           -5.3192     1.9911     0.1540 H       
  53 H53           -4.8463    -0.3359     0.6346 H       
  54 H54           -3.6985     0.1738     1.9017 H       
  55 H55           -3.2408     5.4446    -1.3215 H       
  56 H56           -2.1179     6.6283    -0.5957 H       
  57 H57            3.6903     8.2108     1.2154 H       
  58 H58            2.3427     7.7171     0.1625 H       
  59 H59            2.3425     7.2584     1.8823 H       
  60 H60            5.1638     1.8597     0.4364 H       
  61 H61            5.1510     2.3128    -1.2849 H       
  62 H62            6.5603     2.7066    -0.2714 H       
  63 H63           -3.4112     5.7405     2.5585 H       
  64 H64           -2.3871     6.8896     1.6647 H       
  65 H65           -5.7577     5.6160     2.1597 H       
  66 H66           -7.7689     6.6525     1.1882 H       
  67 H67           -7.5448     8.3938    -0.5383 H       
  68 H68           -5.3095     9.0993    -1.2926 H       
  69 H69           -3.2982     8.0661    -0.3177 H       
@<TRIPOS>BOND
   1    1    2 am
   2    1   11 1
   3    1    6 1
   4    2    3 1
   5    2   17 2
   6    3    4 1
   7    3   42 1
   8    3   43 1
   9    4    5 1
  10    4   22 1
  11    4   27 1
  12    5    6 1
  13    5   25 1
  14    5    7 1
  15    6   10 1
  16    6   28 1
  17    7    8 1
  18    7   19 1
  19    7   26 1
  20    8    9 1
  21    8   44 1
  22    8   45 1
  23    9   10 1
  24    9   18 1
  25    9   29 1
  26   10   21 1
  27   10   12 1
  28   11   12 ar
  29   11   16 ar
  30   12   13 ar
  31   13   14 ar
  32   13   46 1
  33   14   15 ar
  34   14   31 1
  35   15   16 ar
  36   15   33 1
  37   16   47 1
  38   18   20 1
  39   18   30 1
  40   18   35 1
  41   19   23 2
  42   19   20 1
  43   20   48 1
  44   20   49 1
  45   21   30 1
  46   21   50 1
  47   21   51 1
  48   22   24 1
  49   23   24 1
  50   23   52 1
  51   24   53 1
  52   24   54 1
  53   30   55 1
  54   30   56 1
  55   31   32 1
  56   32   57 1
  57   32   58 1
  58   32   59 1
  59   33   34 1
  60   34   60 1
  61   34   61 1
  62   34   62 1
  63   35   36 1
  64   35   63 1
  65   35   64 1
  66   36   37 ar
  67   36   41 ar
  68   37   38 ar
  69   37   65 1
  70   38   39 ar
  71   38   66 1
  72   39   40 ar
  73   39   67 1
  74   40   41 ar
  75   40   68 1
  76   41   69 1

#	End of record

