#	Name: ASD03091429
#	Creating user name:	WinNT
#	Creation time:	15. 06. 2019 20:30

#	Modifying user name:	WinNT
#	Modification time:	15. 06. 2019 20:30

#	Program:	/corina/corina34_cracker 3.40 0067  02.08.2006

@<TRIPOS>MOLECULE
ASD03091429
  32   34    0    0    0
SMALL
NO_CHARGES


@<TRIPOS>ATOM
   1 C1            -0.1272     0.5315     0.3116 C.3     
   2 C2             0.2836    -0.9319     0.4870 C.3     
   3 N3             1.1752    -1.0558     1.6473 N.3     
   4 C4             0.4967    -0.6460     2.8835 C.3     
   5 C5             0.0918     0.8260     2.7815 C.3     
   6 C6             1.3460     1.6843     2.5843 C.3     
   7 N7             1.9560     1.3392     1.2930 N.am    
   8 C8             1.1244     1.3855     0.0826 C.3     
   9 C9            -0.8387     1.0136     1.5794 C.3     
  10 C10            3.2546     0.9861     1.2201 C.2     
  11 O11            3.9495     1.0151     2.2177 O.2     
  12 O12            4.9793    -0.5131    -1.5920 O.3     
  13 C13            4.6986    -0.4664    -0.2861 C.2     
  14 C14            3.8325     0.5649    -0.0685 C.2     
  15 C15            3.5957     1.1679    -1.3883 C.2     
  16 C16            4.3287     0.4545    -2.2567 C.2     
  17 H17           -0.7940     0.6234    -0.5458 H       
  18 H18           -0.6055    -1.5423     0.6455 H       
  19 H19            0.8033    -1.2731    -0.4083 H       
  20 H20            1.5364    -1.9945     1.7272 H       
  21 H21           -0.3934    -1.2581     3.0292 H       
  22 H22            1.1712    -0.7792     3.7292 H       
  23 H23           -0.4179     1.1289     3.6961 H       
  24 H24            1.0715     2.7391     2.5886 H       
  25 H25            2.0549     1.4856     3.3881 H       
  26 H26            1.6872     0.9897    -0.7628 H       
  27 H27            0.8318     2.4156    -0.1206 H       
  28 H28           -1.0918     2.0688     1.4760 H       
  29 H29           -1.7489     0.4330     1.7294 H       
  30 H30            5.0903    -1.1323     0.4685 H       
  31 H31            2.9610     2.0123    -1.6130 H       
  32 H32            4.3859     0.6307    -3.3207 H       
@<TRIPOS>BOND
   1    1    2 1
   2    1    8 1
   3    1    9 1
   4    1   17 1
   5    2    3 1
   6    2   18 1
   7    2   19 1
   8    3    4 1
   9    3   20 1
  10    4    5 1
  11    4   21 1
  12    4   22 1
  13    5    6 1
  14    5    9 1
  15    5   23 1
  16    6    7 1
  17    6   24 1
  18    6   25 1
  19    7    8 1
  20    7   10 am
  21    8   26 1
  22    8   27 1
  23    9   28 1
  24    9   29 1
  25   10   11 2
  26   10   14 1
  27   12   13 1
  28   12   16 1
  29   13   14 2
  30   13   30 1
  31   14   15 1
  32   15   16 2
  33   15   31 1
  34   16   32 1

#	End of record

