#	Name: ASD01911147
#	Creating user name:	WinNT
#	Creation time:	15. 06. 2019 19:57

#	Modifying user name:	WinNT
#	Modification time:	15. 06. 2019 19:57

#	Program:	/corina/corina34_cracker 3.40 0067  02.08.2006

@<TRIPOS>MOLECULE
ASD01911147
  28   29    0    0    0
SMALL
NO_CHARGES


@<TRIPOS>ATOM
   1 C1            -0.0167     1.3808     0.0096 C.ar    
   2 C2             0.0021    -0.0041     0.0020 C.ar    
   3 C3            -1.1828    -0.7195     0.0095 C.ar    
   4 C4            -2.3921    -0.0579     0.0246 C.ar    
   5 C5            -2.4204     1.3411     0.0324 C.ar    
   6 C6            -1.2193     2.0577     0.0305 C.ar    
   7 C7            -3.7065     2.0542     0.0480 C.2     
   8 N8            -3.7291     3.3613     0.0552 N.2     
   9 N9            -4.8572     3.9868     0.0689 N.2     
  10 C10           -4.8798     5.2939     0.0762 C.2     
  11 C11           -6.1659     6.0070     0.0918 C.ar    
  12 C12           -6.1943     7.4060     0.0996 C.ar    
  13 C13           -7.3670     5.2904     0.0931 C.ar    
  14 C14           -8.5697     5.9673     0.1073 C.ar    
  15 C15           -8.5885     7.3521     0.1203 C.ar    
  16 C16           -7.4036     8.0676     0.1137 C.ar    
  17 Cl17           1.4759     2.2673     0.0001 Cl      
  18 Cl18         -10.0624     5.0809     0.1084 Cl      
  19 H19            0.9462    -0.5284    -0.0102 H       
  20 H20           -1.1598    -1.7993     0.0031 H       
  21 H21           -3.3155    -0.6180     0.0300 H       
  22 H22           -1.2329     3.1376     0.0368 H       
  23 H23           -4.6323     1.4980     0.0535 H       
  24 H24           -3.9540     5.8500     0.0707 H       
  25 H25           -5.2709     7.9661     0.0949 H       
  26 H26           -7.3534     4.2105     0.0826 H       
  27 H27           -9.5326     7.8765     0.1314 H       
  28 H28           -7.4265     9.1473     0.1243 H       
@<TRIPOS>BOND
   1    1    2 ar
   2    1   17 1
   3    1    6 ar
   4    2    3 ar
   5    2   19 1
   6    3    4 ar
   7    3   20 1
   8    4    5 ar
   9    4   21 1
  10    5    6 ar
  11    5    7 1
  12    6   22 1
  13    7    8 2
  14    7   23 1
  15    8    9 1
  16    9   10 2
  17   10   11 1
  18   10   24 1
  19   11   12 ar
  20   11   13 ar
  21   12   16 ar
  22   12   25 1
  23   13   14 ar
  24   13   26 1
  25   14   15 ar
  26   14   18 1
  27   15   16 ar
  28   15   27 1
  29   16   28 1

#	End of record

