#	Name: ASD04882361
#	Creating user name:	WinNT
#	Creation time:	15. 06. 2019 20:54

#	Modifying user name:	WinNT
#	Modification time:	15. 06. 2019 20:54

#	Program:	/corina/corina34_cracker 3.40 0067  02.08.2006

@<TRIPOS>MOLECULE
ASD04882361
  86   91    0    0    0
SMALL
NO_CHARGES


@<TRIPOS>ATOM
   1 N1            -0.0169     1.3970     0.0097 N.am    
   2 C2             0.1097     0.0022    -0.0340 C.ar    
   3 C3            -1.0276    -0.8061     0.0459 C.ar    
   4 C4            -0.9035    -2.1901     0.0027 C.ar    
   5 C5             0.3399    -2.7696    -0.1194 C.ar    
   6 C6             1.4813    -1.9670    -0.2002 C.ar    
   7 C7             1.3589    -0.5752    -0.1618 C.ar    
   8 N8            -2.2868    -0.2245     0.1694 N.3     
   9 C9            -3.1529    -0.5995    -0.9571 C.3     
  10 C10           -2.9095    -0.5838     1.4511 C.3     
  11 C11           -4.2532     0.1370     1.5823 C.3     
  12 N12           -5.1193    -0.2379     0.4558 N.3     
  13 C13           -4.4966     0.1214    -0.8259 C.3     
  14 C14            2.8132    -2.5880    -0.3310 C.2     
  15 O15            3.8057    -1.8890    -0.4012 O.2     
  16 C16            0.9210     2.1770    -0.5632 C.2     
  17 C17            0.7439     3.6400    -0.5949 C.2     
  18 O18            1.9136     1.6738    -1.0541 O.2     
  19 N19            2.9298    -3.9300    -0.3726 N.am    
  20 C20           -6.3823     0.3455     0.5797 C.ar    
  21 C21           -7.5142    -0.4555     0.6592 C.ar    
  22 C22           -6.5087     1.7281     0.6293 C.ar    
  23 C23           -7.7588     2.3016     0.7518 C.ar    
  24 C24           -8.8843     1.5012     0.8255 C.ar    
  25 C25           -8.7617     0.1247     0.7817 C.ar    
  26 N26           -0.3086     4.3381    -0.0886 N.2     
  27 C27            1.6053     4.5474    -1.1308 C.2     
  28 O28            1.0608     5.7606    -0.9457 O.3     
  29 C29           -0.1072     5.6030    -0.3070 C.2     
  30 C30           -1.0393     6.7170     0.0944 C.3     
  31 C31           -0.4965     7.7833     1.0480 C.3     
  32 C32           -0.7272     8.1215    -0.4262 C.3     
  33 C33           -7.3815    -1.9559     0.6116 C.3     
  34 C34            4.2524    -4.5467    -0.5024 C.3     
  35 C35            4.1051    -6.0694    -0.5251 C.3     
  36 C36            5.4863    -6.7134    -0.6607 C.3     
  37 N37            5.3453    -8.1714    -0.6825 N.am    
  38 C38            3.4494    -6.5379     0.7754 C.3     
  39 C39            3.2323    -6.4797    -1.7129 C.3     
  40 C40            5.1764    -8.9005    -1.7991 C.2     
  41 C41            5.0573   -10.3675    -1.4496 C.3     
  42 C42            4.7628   -10.3730     0.0683 C.3     
  43 C43            5.3767    -9.0244     0.5114 C.3     
  44 O44            5.1262    -8.4479    -2.9232 O.2     
  45 H45           -0.7817     1.8010     0.4488 H       
  46 H46           -1.7840    -2.8123     0.0653 H       
  47 H47            0.4331    -3.8451    -0.1524 H       
  48 H48            2.2391     0.0475    -0.2241 H       
  49 H49           -2.6758    -0.3119    -1.8940 H       
  50 H50           -3.3159    -1.6772    -0.9474 H       
  51 H51           -3.0697    -1.6614     1.4881 H       
  52 H52           -2.2550    -0.2849     2.2698 H       
  53 H53           -4.7302    -0.1506     2.5192 H       
  54 H54           -4.0902     1.2147     1.5726 H       
  55 H55           -4.3364     1.1989    -0.8629 H       
  56 H56           -5.1511    -0.1776    -1.6446 H       
  57 H57            2.1381    -4.4876    -0.3165 H       
  58 H58           -5.6301     2.3537     0.5725 H       
  59 H59           -7.8577     3.3764     0.7904 H       
  60 H60           -9.8608     1.9523     0.9219 H       
  61 H61           -9.6426    -0.4974     0.8394 H       
  62 H62            2.5475     4.3324    -1.6129 H       
  63 H63           -2.0884     6.4389     0.1951 H       
  64 H64           -1.1886     8.2068     1.7758 H       
  65 H65            0.5348     7.6790     1.3851 H       
  66 H66            0.1524     8.2397    -1.0590 H       
  67 H67           -1.5710     8.7676    -0.6683 H       
  68 H68           -7.2601    -2.3422     1.6236 H       
  69 H69           -8.2773    -2.3858     0.1635 H       
  70 H70           -6.5110    -2.2248     0.0132 H       
  71 H71            4.7195    -4.2129    -1.4289 H       
  72 H72            4.8742    -4.2544     0.3438 H       
  73 H73            5.9535    -6.3796    -1.5873 H       
  74 H74            6.1081    -6.4211     0.1855 H       
  75 H75            2.4654    -6.0791     0.8720 H       
  76 H76            3.3445    -7.6227     0.7592 H       
  77 H77            4.0712    -6.2456     1.6216 H       
  78 H78            3.6994    -6.1459    -2.6395 H       
  79 H79            3.1274    -7.5645    -1.7291 H       
  80 H80            2.2483    -6.0209    -1.6163 H       
  81 H81            4.2350   -10.8252    -1.9994 H       
  82 H82            5.9928   -10.8866    -1.6586 H       
  83 H83            3.6896   -10.3985     0.2574 H       
  84 H84            5.2639   -11.2069     0.5599 H       
  85 H85            6.4019    -9.1702     0.8514 H       
  86 H86            4.7755    -8.5785     1.3038 H       
@<TRIPOS>BOND
   1    1    2 1
   2    1   16 am
   3    1   45 1
   4    2    3 ar
   5    2    7 ar
   6    3    4 ar
   7    3    8 1
   8    4    5 ar
   9    4   46 1
  10    5    6 ar
  11    5   47 1
  12    6    7 ar
  13    6   14 1
  14    7   48 1
  15    8    9 1
  16    8   10 1
  17    9   13 1
  18    9   49 1
  19    9   50 1
  20   10   11 1
  21   10   51 1
  22   10   52 1
  23   11   12 1
  24   11   53 1
  25   11   54 1
  26   12   13 1
  27   12   20 1
  28   13   55 1
  29   13   56 1
  30   14   15 2
  31   14   19 am
  32   16   18 2
  33   16   17 1
  34   17   26 1
  35   17   27 2
  36   19   34 1
  37   19   57 1
  38   20   21 ar
  39   20   22 ar
  40   21   33 1
  41   21   25 ar
  42   22   23 ar
  43   22   58 1
  44   23   24 ar
  45   23   59 1
  46   24   25 ar
  47   24   60 1
  48   25   61 1
  49   26   29 2
  50   27   28 1
  51   27   62 1
  52   28   29 1
  53   29   30 1
  54   30   31 1
  55   30   32 1
  56   30   63 1
  57   31   32 1
  58   31   64 1
  59   31   65 1
  60   32   66 1
  61   32   67 1
  62   33   68 1
  63   33   69 1
  64   33   70 1
  65   34   35 1
  66   34   71 1
  67   34   72 1
  68   35   36 1
  69   35   38 1
  70   35   39 1
  71   36   37 1
  72   36   73 1
  73   36   74 1
  74   37   40 am
  75   37   43 1
  76   38   75 1
  77   38   76 1
  78   38   77 1
  79   39   78 1
  80   39   79 1
  81   39   80 1
  82   40   41 1
  83   40   44 2
  84   41   42 1
  85   41   81 1
  86   41   82 1
  87   42   43 1
  88   42   83 1
  89   42   84 1
  90   43   85 1
  91   43   86 1

#	End of record

