#	Name: ASD01912306
#	Creating user name:	WinNT
#	Creation time:	15. 06. 2019 19:59

#	Modifying user name:	WinNT
#	Modification time:	15. 06. 2019 19:59

#	Program:	/corina/corina34_cracker 3.40 0067  02.08.2006

@<TRIPOS>MOLECULE
ASD01912306
  61   63    0    0    0
SMALL
NO_CHARGES


@<TRIPOS>ATOM
   1 C1            -0.0169     1.3937     0.0097 C.ar    
   2 C2             0.0021    -0.0041     0.0020 C.ar    
   3 C3             1.2200    -0.6586    -0.0132 C.ar    
   4 C4             2.3820     0.1017    -0.0202 C.ar    
   5 C5             2.2917     1.4816    -0.0120 C.ar    
   6 N6             1.1202     2.0835     0.0026 N.ar    
   7 C7             3.5515     2.3086    -0.0196 C.3     
   8 C8            -1.2694     2.0877     0.0194 C.1     
   9 C9            -2.2963     2.6567     0.0274 C.1     
  10 C10           -3.5488     3.3508     0.0371 C.2     
  11 N11           -3.6111     7.1939     1.1690 N.am    
  12 C12           -4.8645     6.4304     1.2214 C.3     
  13 C13           -4.8852     5.4347     0.0547 C.3     
  14 C14           -3.5723     4.6828     0.0444 C.2     
  15 C15           -2.2866     5.4804     0.0422 C.3     
  16 C16           -2.3311     6.4750     1.2091 C.3     
  17 S17           -3.6407     8.8460     1.0592 S.o2    
  18 O18           -2.3991     9.2324     0.4863 O.2     
  19 O19           -4.8981     9.1880     0.4924 O.2     
  20 C20           -3.6480     9.4780     2.7039 C.ar    
  21 C21           -4.7305     9.2339     3.5368 C.ar    
  22 C22           -4.7332     9.7329     4.8311 C.ar    
  23 C23           -3.6585    10.4714     5.2877 C.ar    
  24 C24           -2.5813    10.7137     4.4557 C.ar    
  25 C25           -2.5735    10.2121     3.1670 C.ar    
  26 O26           -5.7866     8.5076     3.0852 O.3     
  27 C27           -6.8659     8.2958     3.9975 C.3     
  28 C28           -1.4109    11.5204     4.9561 C.3     
  29 C29           -1.6665    11.9465     6.4031 C.3     
  30 C30           -0.1406    10.6700     4.8917 C.3     
  31 C31           -1.2372    12.7636     4.0814 C.3     
  32 H32           -0.9211    -0.5645     0.0082 H       
  33 H33            1.2665    -1.7376    -0.0191 H       
  34 H34            3.3483    -0.3807    -0.0317 H       
  35 H35            3.8454     2.5135    -1.0490 H       
  36 H36            3.3719     3.2492     0.5010 H       
  37 H37            4.3485     1.7612     0.4837 H       
  38 H38           -4.4745     2.7944     0.0384 H       
  39 H39           -4.9231     5.8885     2.1653 H       
  40 H40           -5.7111     7.1115     1.1355 H       
  41 H41           -5.7089     4.7329     0.1857 H       
  42 H42           -5.0071     5.9731    -0.8852 H       
  43 H43           -1.4375     4.8082     0.1651 H       
  44 H44           -2.1928     6.0227    -0.8988 H       
  45 H45           -1.5099     7.1856     1.1152 H       
  46 H46           -2.2443     5.9358     2.1524 H       
  47 H47           -5.5748     9.5445     5.4812 H       
  48 H48           -3.6601    10.8602     6.2953 H       
  49 H49           -1.7287    10.3986     2.5206 H       
  50 H50           -7.2800     9.2576     4.3000 H       
  51 H51           -7.6411     7.7031     3.5119 H       
  52 H52           -6.4999     7.7651     4.8764 H       
  53 H53           -1.7902    11.0608     7.0263 H       
  54 H54           -0.8200    12.5300     6.7650 H       
  55 H55           -2.5715    12.5524     6.4490 H       
  56 H56            0.0415    10.3664     3.8608 H       
  57 H57            0.7060    11.2535     5.2536 H       
  58 H58           -0.2643     9.7843     5.5148 H       
  59 H59           -2.1422    13.3694     4.1272 H       
  60 H60           -0.3906    13.3471     4.4433 H       
  61 H61           -1.0551    12.4600     3.0505 H       
@<TRIPOS>BOND
   1    1    2 ar
   2    1    6 ar
   3    1    8 1
   4    2    3 ar
   5    2   32 1
   6    3    4 ar
   7    3   33 1
   8    4    5 ar
   9    4   34 1
  10    5    6 ar
  11    5    7 1
  12    7   35 1
  13    7   36 1
  14    7   37 1
  15    8    9 3
  16    9   10 1
  17   10   14 2
  18   10   38 1
  19   11   12 1
  20   11   16 1
  21   11   17 am
  22   12   13 1
  23   12   39 1
  24   12   40 1
  25   13   14 1
  26   13   41 1
  27   13   42 1
  28   14   15 1
  29   15   16 1
  30   15   43 1
  31   15   44 1
  32   16   45 1
  33   16   46 1
  34   17   18 2
  35   17   19 2
  36   17   20 1
  37   20   21 ar
  38   20   25 ar
  39   21   22 ar
  40   21   26 1
  41   22   23 ar
  42   22   47 1
  43   23   24 ar
  44   23   48 1
  45   24   25 ar
  46   24   28 1
  47   25   49 1
  48   26   27 1
  49   27   50 1
  50   27   51 1
  51   27   52 1
  52   28   29 1
  53   28   31 1
  54   28   30 1
  55   29   53 1
  56   29   54 1
  57   29   55 1
  58   30   56 1
  59   30   57 1
  60   30   58 1
  61   31   59 1
  62   31   60 1
  63   31   61 1

#	End of record

