#	Name: ASD01811474
#	Creating user name:	WinNT
#	Creation time:	15. 06. 2019 19:26

#	Modifying user name:	WinNT
#	Modification time:	15. 06. 2019 19:26

#	Program:	/corina/corina34_cracker 3.40 0067  02.08.2006

@<TRIPOS>MOLECULE
ASD01811474
  44   48    0    0    0
SMALL
NO_CHARGES


@<TRIPOS>ATOM
   1 C1            -0.0166     1.3762     0.0096 C.ar    
   2 C2             0.0021    -0.0041     0.0020 C.ar    
   3 N3             1.1394    -0.6769    -0.0124 N.ar    
   4 C4             2.3152    -0.0872    -0.0205 C.ar    
   5 C5             2.3988     1.3079    -0.0138 C.ar    
   6 C6             1.1999     2.0556     0.0016 C.ar    
   7 C7             1.2961     3.5225     0.0081 C.2     
   8 N8             3.5826     1.9658    -0.0221 N.2     
   9 C9             3.6383     3.2638    -0.0160 C.2     
  10 N10            2.5389     4.0616    -0.0013 N.am    
  11 O11            0.3011     4.2231     0.0210 O.2     
  12 C12            2.6987     5.5179     0.0041 C.3     
  13 C13            2.7671     6.0105     1.4266 C.ar    
  14 C14            1.6044     6.3618     2.0923 C.ar    
  15 C15            3.9919     6.1054     2.0663 C.ar    
  16 C16            4.0595     6.5568     3.3713 C.ar    
  17 C17            2.8929     6.9166     4.0430 C.ar    
  18 C18            1.6624     6.8146     3.3973 C.ar    
  19 C19            2.9603     7.4015     5.4434 C.ar    
  20 C20            4.2040     7.4960     6.0878 C.ar    
  21 C21            4.2955     7.9369     7.3701 C.ar    
  22 C22            3.1331     8.3051     8.0671 C.ar    
  23 C23            1.8702     8.2132     7.4241 C.ar    
  24 C24            1.7974     7.7620     6.1008 C.ar    
  25 C25            0.7243     8.5903     8.1500 C.ar    
  26 C26            3.1783     8.7666     9.3924 C.ar    
  27 N27            2.0682     9.1011    10.0077 N.ar    
  28 C28            0.8764     9.0250     9.4314 C.ar    
  29 F29            5.1223     5.7558     1.4141 F       
  30 F30            0.4118     6.2621     1.4654 F       
  31 H31           -0.9517     1.9165     0.0170 H       
  32 H32           -0.9324    -0.5455     0.0084 H       
  33 H33            3.2168    -0.6817    -0.0320 H       
  34 H34            4.6107     3.7337    -0.0232 H       
  35 H35            3.6180     5.7845    -0.5174 H       
  36 H36            1.8487     5.9785    -0.4995 H       
  37 H37            5.0149     6.6301     3.8694 H       
  38 H38            0.7554     7.0890     3.9154 H       
  39 H39            5.1012     7.2138     5.5569 H       
  40 H40            5.2596     8.0035     7.8522 H       
  41 H41            0.8432     7.6920     5.5998 H       
  42 H42           -0.2557     8.5363     7.6993 H       
  43 H43            4.1255     8.8459     9.9051 H       
  44 H44            0.0017     9.3159     9.9941 H       
@<TRIPOS>BOND
   1    1    2 ar
   2    1    6 ar
   3    1   31 1
   4    2    3 ar
   5    2   32 1
   6    3    4 ar
   7    4    5 ar
   8    4   33 1
   9    5    6 ar
  10    5    8 1
  11    6    7 1
  12    7   10 am
  13    7   11 2
  14    8    9 2
  15    9   10 1
  16    9   34 1
  17   10   12 1
  18   12   13 1
  19   12   35 1
  20   12   36 1
  21   13   15 ar
  22   13   14 ar
  23   14   18 ar
  24   14   30 1
  25   15   16 ar
  26   15   29 1
  27   16   17 ar
  28   16   37 1
  29   17   18 ar
  30   17   19 1
  31   18   38 1
  32   19   20 ar
  33   19   24 ar
  34   20   21 ar
  35   20   39 1
  36   21   22 ar
  37   21   40 1
  38   22   26 ar
  39   22   23 ar
  40   23   24 ar
  41   23   25 ar
  42   24   41 1
  43   25   28 ar
  44   25   42 1
  45   26   27 ar
  46   26   43 1
  47   27   28 ar
  48   28   44 1

#	End of record

