#	Name: ASD01881782
#	Creating user name:	WinNT
#	Creation time:	15. 06. 2019 19:43

#	Modifying user name:	WinNT
#	Modification time:	15. 06. 2019 19:43

#	Program:	/corina/corina34_cracker 3.40 0067  02.08.2006

@<TRIPOS>MOLECULE
ASD01881782
  35   37    0    0    0
SMALL
NO_CHARGES


@<TRIPOS>ATOM
   1 C1            -0.0187     1.5258     0.0104 C.3     
   2 C2             0.0021    -0.0041     0.0020 C.3     
   3 C3            -1.4333    -0.5336     0.0129 C.3     
   4 O4             1.3220     2.0204     0.0003 O.3     
   5 O5            -1.4139    -1.9625     0.0050 O.3     
   6 N6            -6.1249    -4.7571     0.0355 N.pl3   
   7 N7            -5.5466    -6.0350     0.0225 N.2     
   8 N8            -4.2650    -5.9248     0.0103 N.2     
   9 C9            -3.9064    -4.6254     0.0141 C.ar    
  10 C10           -5.0835    -3.8573     0.0302 C.ar    
  11 C11           -2.6648    -3.9750     0.0062 C.ar    
  12 C12           -2.6171    -2.5963     0.0131 C.ar    
  13 C13           -3.7921    -1.8488     0.0288 C.ar    
  14 C14           -5.0097    -2.4690     0.0381 C.ar    
  15 C15           -7.5556    -4.4422     0.0462 C.3     
  16 C16           -8.0452    -4.3430     1.4923 C.3     
  17 C17           -9.4934    -3.9045     1.7194 C.3     
  18 C18           -9.0890    -5.3609     1.9562 C.3     
  19 Br19          -1.0642    -4.9817    -0.0149 Br      
  20 H20           -0.5459     1.8868    -0.8726 H       
  21 H21           -0.5289     1.8773     0.9072 H       
  22 H22            0.5123    -0.3556    -0.8948 H       
  23 H23            0.5293    -0.3651     0.8851 H       
  24 H24           -1.9435    -0.1821     0.9097 H       
  25 H25           -1.9605    -0.1726    -0.8702 H       
  26 H26            1.3852     2.9853     0.0049 H       
  27 H27           -3.7406    -0.7700     0.0345 H       
  28 H28           -5.9151    -1.8804     0.0505 H       
  29 H29           -7.7222    -3.4913    -0.4599 H       
  30 H30           -8.1048    -5.2296    -0.4701 H       
  31 H31           -7.3010    -4.0178     2.2193 H       
  32 H32           -9.7019    -3.2911     2.5960 H       
  33 H33          -10.0973    -3.6867     0.8385 H       
  34 H34           -9.4269    -6.1013     1.2312 H       
  35 H35           -9.0316    -5.7058     2.9886 H       
@<TRIPOS>BOND
   1    1    2 1
   2    1    4 1
   3    1   20 1
   4    1   21 1
   5    2    3 1
   6    2   22 1
   7    2   23 1
   8    3    5 1
   9    3   24 1
  10    3   25 1
  11    4   26 1
  12    5   12 1
  13    6    7 1
  14    6   10 1
  15    6   15 1
  16    7    8 2
  17    8    9 1
  18    9   10 ar
  19    9   11 ar
  20   10   14 ar
  21   11   12 ar
  22   11   19 1
  23   12   13 ar
  24   13   14 ar
  25   13   27 1
  26   14   28 1
  27   15   16 1
  28   15   29 1
  29   15   30 1
  30   16   17 1
  31   16   18 1
  32   16   31 1
  33   17   18 1
  34   17   32 1
  35   17   33 1
  36   18   34 1
  37   18   35 1

#	End of record

