#	Name: ASD01811196
#	Creating user name:	WinNT
#	Creation time:	15. 06. 2019 19:26

#	Modifying user name:	WinNT
#	Modification time:	15. 06. 2019 19:26

#	Program:	/corina/corina34_cracker 3.40 0067  02.08.2006

@<TRIPOS>MOLECULE
ASD01811196
  60   64    0    0    0
SMALL
NO_CHARGES


@<TRIPOS>ATOM
   1 C1            -8.0254     2.1673     2.3311 C.1     
   2 C2            -6.8586     2.9690     2.1156 C.ar    
   3 C3            -5.6086     2.5176     2.5438 C.ar    
   4 C4            -4.4888     3.2951     2.3330 C.ar    
   5 C5            -4.6022     4.5198     1.6993 C.ar    
   6 C6            -5.8378     4.9734     1.2728 C.ar    
   7 C7            -6.9649     4.2031     1.4711 C.ar    
   8 N8            -8.9510     1.5313     2.5020 N.1     
   9 N9            -1.9285     7.7947     1.4833 N.am    
  10 C10           -2.4295     7.2920     0.1968 C.3     
  11 C11           -3.6891     6.4578     0.4502 C.3     
  12 C12           -3.3744     5.3637     1.4730 C.3     
  13 C13           -2.9467     6.0063     2.7945 C.3     
  14 C14           -1.6786     6.8354     2.5677 C.3     
  15 F15           -2.3377     4.5582     0.9897 F       
  16 C16           -1.6973     9.1102     1.6634 C.2     
  17 C17           -1.2832     9.6131     2.9908 C.ar    
  18 C18           -2.0169    10.6237     3.6167 C.ar    
  19 C19           -1.6320    11.0941     4.8562 C.ar    
  20 C20           -0.5203    10.5701     5.4860 C.ar    
  21 C21            0.2225     9.5593     4.8716 C.ar    
  22 C22           -0.1638     9.0762     3.6226 C.ar    
  23 O23           -1.8293     9.8832     0.7347 O.2     
  24 C24           -3.2312    11.2021     2.9370 C.3     
  25 C25           -4.4235    10.2648     3.1388 C.3     
  26 C26           -0.1074    11.0902     6.8387 C.3     
  27 C27            0.2383    12.5766     6.9487 C.3     
  28 C28           -1.0655    12.0479     7.5499 C.3     
  29 O29            2.2177     8.0249     5.0704 O.3     
  30 C30            1.4121     8.9998     5.5466 C.2     
  31 N31            1.8804     9.3580     6.7170 N.2     
  32 N32            2.9269     8.6614     6.9902 N.2     
  33 C33            3.1681     7.8302     6.0036 C.2     
  34 N34            4.2060     6.9219     5.9357 N.pl3   
  35 H35           -5.5188     1.5622     3.0393 H       
  36 H36           -3.5213     2.9471     2.6638 H       
  37 H37           -5.9193     5.9305     0.7790 H       
  38 H38           -7.9281     4.5562     1.1333 H       
  39 H39           -2.6722     8.1319    -0.4542 H       
  40 H40           -1.6680     6.6702    -0.2740 H       
  41 H41           -4.4796     7.1008     0.8369 H       
  42 H42           -4.0160     5.9998    -0.4834 H       
  43 H43           -3.7442     6.6536     3.1592 H       
  44 H44           -2.7452     5.2270     3.5295 H       
  45 H45           -0.8559     6.1764     2.2902 H       
  46 H46           -1.4260     7.3740     3.4810 H       
  47 H47           -2.2026    11.8759     5.3355 H       
  48 H48            0.4046     8.2918     3.1449 H       
  49 H49           -3.4587    12.1773     3.3676 H       
  50 H50           -3.0326    11.3131     1.8710 H       
  51 H51           -4.6222    10.1539     4.2048 H       
  52 H52           -5.3018    10.6832     2.6471 H       
  53 H53           -4.1961     9.2897     2.7081 H       
  54 H54            0.4601    10.3944     7.4568 H       
  55 H55            1.0330    12.8587     7.6393 H       
  56 H56            0.1671    13.1782     6.0426 H       
  57 H57           -1.9945    12.3018     7.0393 H       
  58 H58           -1.1286    11.9823     8.6361 H       
  59 H59            4.2982     6.3480     5.1591 H       
  60 H60            4.8428     6.8577     6.6646 H       
@<TRIPOS>BOND
   1    1    2 1
   2    1    8 3
   3    2    3 ar
   4    2    7 ar
   5    3    4 ar
   6    3   35 1
   7    4    5 ar
   8    4   36 1
   9    5    6 ar
  10    5   12 1
  11    6    7 ar
  12    6   37 1
  13    7   38 1
  14    9   10 1
  15    9   14 1
  16    9   16 am
  17   10   11 1
  18   10   39 1
  19   10   40 1
  20   11   12 1
  21   11   41 1
  22   11   42 1
  23   12   13 1
  24   12   15 1
  25   13   14 1
  26   13   43 1
  27   13   44 1
  28   14   45 1
  29   14   46 1
  30   16   17 1
  31   16   23 2
  32   17   18 ar
  33   17   22 ar
  34   18   19 ar
  35   18   24 1
  36   19   20 ar
  37   19   47 1
  38   20   21 ar
  39   20   26 1
  40   21   22 ar
  41   21   30 1
  42   22   48 1
  43   24   25 1
  44   24   49 1
  45   24   50 1
  46   25   51 1
  47   25   52 1
  48   25   53 1
  49   26   27 1
  50   26   28 1
  51   26   54 1
  52   27   28 1
  53   27   55 1
  54   27   56 1
  55   28   57 1
  56   28   58 1
  57   29   30 1
  58   29   33 1
  59   30   31 2
  60   31   32 1
  61   32   33 2
  62   33   34 1
  63   34   59 1
  64   34   60 1

#	End of record

