#	Name: ASD03240768
#	Creating user name:	WinNT
#	Creation time:	15. 06. 2019 20:35

#	Modifying user name:	WinNT
#	Modification time:	15. 06. 2019 20:35

#	Program:	/corina/corina34_cracker 3.40 0067  02.08.2006

@<TRIPOS>MOLECULE
ASD03240768
  78   84    0    0    0
SMALL
NO_CHARGES


@<TRIPOS>ATOM
   1 C1            -0.8947     2.9118    -0.9975 C.2     
   2 N2            -1.0923     1.5823    -1.0402 N.2     
   3 C3            -0.1016     0.7310    -0.9715 C.2     
   4 C4             1.2630     1.2383    -0.8444 C.ar    
   5 C5             1.4638     2.6346    -0.8001 C.ar    
   6 N6             0.3556     3.4559    -0.8795 N.pl3   
   7 C7             2.3632     0.3782    -0.7661 C.ar    
   8 C8             3.6273     0.9468    -0.6460 C.ar    
   9 C9             3.7483     2.3493    -0.6085 C.ar    
  10 N10            2.6826     3.1324    -0.6862 N.ar    
  11 N11            0.2176     4.8491    -0.8644 N.2     
  12 C12           -1.0549     5.1490    -0.9679 C.2     
  13 C13           -1.7891     3.9724    -1.0480 C.2     
  14 C14            4.8318     0.0869    -0.5581 C.ar    
  15 C15            4.8738    -0.9675     0.3528 C.ar    
  16 C16            5.9975    -1.7649     0.4298 C.ar    
  17 C17            7.0810    -1.5193    -0.3943 C.ar    
  18 C18            7.0452    -0.4741    -1.2998 C.ar    
  19 C19            5.9245     0.3261    -1.3900 C.ar    
  20 C20           -1.6278     6.5426    -0.9894 C.3     
  21 C21            5.0913     2.9600    -0.4808 C.ar    
  22 C22            5.3784     4.1621    -1.1274 C.ar    
  23 C23            6.6317     4.7261    -1.0046 C.ar    
  24 C24            7.6026     4.1017    -0.2420 C.ar    
  25 C25            7.3240     2.9092     0.4018 C.ar    
  26 C26            6.0727     2.3383     0.2913 C.ar    
  27 C27            8.9695     4.7228    -0.1125 C.3     
  28 N28            8.9889     5.6268     1.0452 N.3     
  29 C29           10.3571     6.0669     1.3464 C.3     
  30 C30           10.3580     6.8859     2.6392 C.3     
  31 C31            9.4375     8.0978     2.4705 C.3     
  32 C32            8.0303     7.6138     2.1098 C.3     
  33 C33            8.0969     6.7737     0.8324 C.3     
  34 C34            9.3874     8.8756     3.7603 C.2     
  35 N35            8.6343     9.9900     3.8464 N.am    
  36 O36           10.0248     8.4987     4.7209 O.2     
  37 C37            8.5098    10.6576     5.0702 C.ar    
  38 C38            9.5869    10.7153     5.9411 C.ar    
  39 C39            9.4577    11.3818     7.1592 C.ar    
  40 C40            8.2445    11.9864     7.4936 C.ar    
  41 C41            7.1784    11.9232     6.6199 C.ar    
  42 C42            7.3083    11.2674     5.4098 C.ar    
  43 C43           10.6017    11.4474     8.0938 C.2     
  44 N44           10.4744    12.0921     9.2705 N.am    
  45 O45           11.6569    10.9200     7.8008 O.2     
  46 H46           -0.2895    -0.3319    -1.0079 H       
  47 H47            2.2354    -0.6937    -0.7974 H       
  48 H48           -2.8628     3.8964    -1.1363 H       
  49 H49            4.0287    -1.1598     0.9972 H       
  50 H50            6.0312    -2.5821     1.1351 H       
  51 H51            7.9585    -2.1457    -0.3303 H       
  52 H52            7.8942    -0.2867    -1.9405 H       
  53 H53            5.8958     1.1391    -2.1004 H       
  54 H54           -1.6783     6.8989    -2.0183 H       
  55 H55           -2.6294     6.5304    -0.5596 H       
  56 H56           -0.9902     7.2067    -0.4058 H       
  57 H57            4.6214     4.6503    -1.7233 H       
  58 H58            6.8553     5.6566    -1.5051 H       
  59 H59            8.0860     2.4266     0.9956 H       
  60 H60            5.8550     1.4097     0.7980 H       
  61 H61            9.7134     3.9383     0.0265 H       
  62 H62            9.1999     5.2858    -1.0170 H       
  63 H63           11.0004     5.1954     1.4681 H       
  64 H64           10.7296     6.6815     0.5269 H       
  65 H65            9.9986     6.2677     3.4619 H       
  66 H66           11.3712     7.2255     2.8541 H       
  67 H67            9.8185     8.7364     1.6736 H       
  68 H68            7.6343     7.0071     2.9242 H       
  69 H69            7.3805     8.4736     1.9465 H       
  70 H70            8.4800     7.3850     0.0153 H       
  71 H71            7.0986     6.4157     0.5808 H       
  72 H72            8.1786    10.3293     3.0603 H       
  73 H73           10.5228    10.2454     5.6771 H       
  74 H74            8.1404    12.5031     8.4362 H       
  75 H75            6.2406    12.3912     6.8805 H       
  76 H76            6.4719    11.2254     4.7279 H       
  77 H77            9.6323    12.5130     9.5043 H       
  78 H78           11.2248    12.1351     9.8836 H       
@<TRIPOS>BOND
   1    1    2 1
   2    1    6 1
   3    1   13 2
   4    2    3 2
   5    3    4 1
   6    3   46 1
   7    4    5 ar
   8    4    7 ar
   9    5    6 1
  10    5   10 ar
  11    6   11 1
  12    7    8 ar
  13    7   47 1
  14    8    9 ar
  15    8   14 1
  16    9   10 ar
  17    9   21 1
  18   11   12 2
  19   12   13 1
  20   12   20 1
  21   13   48 1
  22   14   15 ar
  23   14   19 ar
  24   15   16 ar
  25   15   49 1
  26   16   17 ar
  27   16   50 1
  28   17   18 ar
  29   17   51 1
  30   18   19 ar
  31   18   52 1
  32   19   53 1
  33   20   54 1
  34   20   55 1
  35   20   56 1
  36   21   22 ar
  37   21   26 ar
  38   22   23 ar
  39   22   57 1
  40   23   24 ar
  41   23   58 1
  42   24   25 ar
  43   24   27 1
  44   25   26 ar
  45   25   59 1
  46   26   60 1
  47   27   28 1
  48   27   61 1
  49   27   62 1
  50   28   29 1
  51   28   33 1
  52   29   30 1
  53   29   63 1
  54   29   64 1
  55   30   31 1
  56   30   65 1
  57   30   66 1
  58   31   32 1
  59   31   34 1
  60   31   67 1
  61   32   33 1
  62   32   68 1
  63   32   69 1
  64   33   70 1
  65   33   71 1
  66   34   35 am
  67   34   36 2
  68   35   37 1
  69   35   72 1
  70   37   38 ar
  71   37   42 ar
  72   38   39 ar
  73   38   73 1
  74   39   40 ar
  75   39   43 1
  76   40   41 ar
  77   40   74 1
  78   41   42 ar
  79   41   75 1
  80   42   76 1
  81   43   44 am
  82   43   45 2
  83   44   77 1
  84   44   78 1

#	End of record

