#	Name: ASD01913105
#	Creating user name:	WinNT
#	Creation time:	15. 06. 2019 20:00

#	Modifying user name:	WinNT
#	Modification time:	15. 06. 2019 20:00

#	Program:	/corina/corina34_cracker 3.40 0067  02.08.2006

@<TRIPOS>MOLECULE
ASD01913105
  35   37    0    0    0
SMALL
NO_CHARGES


@<TRIPOS>ATOM
   1 N1            -0.0169     1.3963     0.0097 N.2     
   2 N2             0.0021    -0.0041     0.0020 N.pl3   
   3 C3             1.2265     1.8293     0.0002 C.2     
   4 C4             2.0818     0.7147    -0.0140 C.2     
   5 C5             1.3050    -0.4065    -0.0126 C.2     
   6 C6             1.7882    -1.8053    -0.0240 C.ar    
   7 C7             1.6518     3.2515     0.0033 C.ar    
   8 C8             3.0009     3.5778    -0.1133 C.ar    
   9 C9             3.3909     4.9020    -0.1103 C.ar    
  10 C10            2.4449     5.9038     0.0082 C.ar    
  11 C11            1.1037     5.5853     0.1243 C.ar    
  12 C12            0.7023     4.2649     0.1171 C.ar    
  13 C13            0.8766    -2.8612    -0.0210 C.ar    
  14 C14            0.0785     6.6823     0.2536 C.3     
  15 C15            2.8766     7.3476     0.0114 C.3     
  16 C16            3.1570    -2.0733    -0.0435 C.ar    
  17 C17            3.6012    -3.3796    -0.0545 C.ar    
  18 C18            2.6922    -4.4224    -0.0467 C.ar    
  19 C19            1.3334    -4.1632    -0.0322 C.ar    
  20 H20           -0.7745    -0.5852     0.0066 H       
  21 H21            3.1615     0.7411    -0.0245 H       
  22 H22            3.7406     2.7962    -0.2055 H       
  23 H23            4.4367     5.1561    -0.2003 H       
  24 H24           -0.3450     4.0173     0.2075 H       
  25 H25           -0.1845    -2.6601    -0.0097 H       
  26 H26           -0.2645     6.9777    -0.7380 H       
  27 H27           -0.7677     6.3217     0.8383 H       
  28 H28            0.5263     7.5409     0.7539 H       
  29 H29            2.8852     7.7265    -1.0106 H       
  30 H30            2.1798     7.9339     0.6104 H       
  31 H31            3.8771     7.4267     0.4366 H       
  32 H32            3.8676    -1.2600    -0.0504 H       
  33 H33            4.6607    -3.5883    -0.0697 H       
  34 H34            3.0448    -5.4432    -0.0561 H       
  35 H35            0.6287    -4.9815    -0.0261 H       
@<TRIPOS>BOND
   1    1    2 1
   2    1    3 2
   3    2    5 1
   4    2   20 1
   5    3    4 1
   6    3    7 1
   7    4    5 2
   8    4   21 1
   9    5    6 1
  10    6   13 ar
  11    6   16 ar
  12    7    8 ar
  13    7   12 ar
  14    8    9 ar
  15    8   22 1
  16    9   10 ar
  17    9   23 1
  18   10   11 ar
  19   10   15 1
  20   11   12 ar
  21   11   14 1
  22   12   24 1
  23   13   19 ar
  24   13   25 1
  25   14   26 1
  26   14   27 1
  27   14   28 1
  28   15   29 1
  29   15   30 1
  30   15   31 1
  31   16   17 ar
  32   16   32 1
  33   17   18 ar
  34   17   33 1
  35   18   19 ar
  36   18   34 1
  37   19   35 1

#	End of record

