#	Name: ASD01914771
#	Creating user name:	WinNT
#	Creation time:	15. 06. 2019 20:04

#	Modifying user name:	WinNT
#	Modification time:	15. 06. 2019 20:04

#	Program:	/corina/corina34_cracker 3.40 0067  02.08.2006

@<TRIPOS>MOLECULE
ASD01914771
  41   44    0    0    0
SMALL
NO_CHARGES


@<TRIPOS>ATOM
   1 N1            -0.0054     1.4643     0.2532 N.am    
   2 C2             0.0716     0.1186    -0.0038 C.2     
   3 C3            -1.1591    -0.7058    -0.2963 C.3     
   4 C4            -2.3491    -0.0433     0.4068 C.3     
   5 N5            -2.3219     1.4067     0.2404 N.am    
   6 C6            -1.1794     2.1215     0.2822 C.2     
   7 C7             1.2668     1.9071     0.4582 C.2     
   8 C8             2.0743     0.8346     0.3301 C.2     
   9 N9             1.3124    -0.2397     0.0506 N.2     
  10 C10            3.5743     0.8380     0.4752 C.3     
  11 O11           -1.2092     3.3345     0.3448 O.2     
  12 C12           -3.5302     2.0820     0.0286 C.ar    
  13 O13            4.0211     2.1624     0.7723 O.3     
  14 C14            5.3585     2.3403     0.9352 C.ar    
  15 C15            5.8616     3.6002     1.2254 C.ar    
  16 C16            6.2225     1.2613     0.8173 C.ar    
  17 C17            7.5815     1.4447     0.9838 C.ar    
  18 C18            8.0809     2.7023     1.2682 C.ar    
  19 C19            7.2215     3.7784     1.3910 C.ar    
  20 C20           -3.7811     2.6903    -1.1936 C.ar    
  21 C21           -4.9754     3.3569    -1.4005 C.ar    
  22 C22           -5.9205     3.4168    -0.3876 C.ar    
  23 C23           -5.6703     2.8101     0.8313 C.ar    
  24 C24           -4.4810     2.1389     1.0390 C.ar    
  25 F25           -5.2209     3.9498    -2.5894 F       
  26 F26           -7.0865     4.0683    -0.5903 F       
  27 H27           -1.3361    -0.7355    -1.3714 H       
  28 H28           -1.0235    -1.7184     0.0838 H       
  29 H29           -3.2754    -0.4338    -0.0146 H       
  30 H30           -2.3135    -0.2815     1.4699 H       
  31 H31            1.5696     2.9199     0.6797 H       
  32 H32            3.8626     0.1671     1.2845 H       
  33 H33            4.0301     0.5011    -0.4559 H       
  34 H34            5.1907     4.4411     1.3214 H       
  35 H35            5.8329     0.2787     0.5958 H       
  36 H36            8.2545     0.6050     0.8920 H       
  37 H37            9.1437     2.8435     1.3984 H       
  38 H38            7.6140     4.7598     1.6129 H       
  39 H39           -3.0445     2.6436    -1.9821 H       
  40 H40           -6.4075     2.8579     1.6190 H       
  41 H41           -4.2871     1.6657     1.9903 H       
@<TRIPOS>BOND
   1    1    2 1
   2    1    7 1
   3    1    6 am
   4    2    3 1
   5    2    9 2
   6    3    4 1
   7    3   27 1
   8    3   28 1
   9    4    5 1
  10    4   29 1
  11    4   30 1
  12    5    6 am
  13    5   12 1
  14    6   11 2
  15    7    8 2
  16    7   31 1
  17    8    9 1
  18    8   10 1
  19   10   13 1
  20   10   32 1
  21   10   33 1
  22   12   20 ar
  23   12   24 ar
  24   13   14 1
  25   14   15 ar
  26   14   16 ar
  27   15   19 ar
  28   15   34 1
  29   16   17 ar
  30   16   35 1
  31   17   18 ar
  32   17   36 1
  33   18   19 ar
  34   18   37 1
  35   19   38 1
  36   20   21 ar
  37   20   39 1
  38   21   22 ar
  39   21   25 1
  40   22   23 ar
  41   22   26 1
  42   23   24 ar
  43   23   40 1
  44   24   41 1

#	End of record

