#	Name: ASD01948319
#	Creating user name:	WinNT
#	Creation time:	15. 06. 2019 20:14

#	Modifying user name:	WinNT
#	Modification time:	15. 06. 2019 20:14

#	Program:	/corina/corina34_cracker 3.40 0067  02.08.2006

@<TRIPOS>MOLECULE
ASD01948319
  53   55    0    0    0
SMALL
NO_CHARGES


@<TRIPOS>ATOM
   1 C1            -0.0219     1.5316     0.1779 C.2     
   2 N2             0.0802     0.1746     0.0853 N.am    
   3 C3             1.2708    -0.4424     0.1969 C.2     
   4 C4             2.3451     1.6817     0.5067 C.2     
   5 C5             1.0758     2.2963     0.3848 C.2     
   6 C6             3.2089     3.4771    -1.4482 C.ar    
   7 C7             3.8687     3.3991    -0.2291 C.ar    
   8 N8             3.4796     2.4467     0.7191 N.pl3   
   9 C9             3.5954     4.4181    -2.3827 C.ar    
  10 C10            4.6389     5.2829    -2.1060 C.ar    
  11 C11            5.2995     5.2091    -0.8928 C.ar    
  12 C12            4.9178     4.2695     0.0473 C.ar    
  13 N13            0.9558     3.6926     0.4781 N.am    
  14 S14           -0.5427     4.3974     0.4689 S.o2    
  15 N15           -1.3148     3.9256     1.8559 N.am    
  16 O16            1.3357    -1.6594     0.1103 O.2     
  17 C17           -1.1268    -0.6247    -0.1391 C.3     
  18 F18            5.5624     4.1975     1.2324 F       
  19 I19            5.2204     6.7078    -3.5275 I       
  20 O20           -0.3284     5.7973     0.5853 O.2     
  21 O21           -1.2570     3.8074    -0.6085 O.2     
  22 C22            2.4340     0.3032     0.4112 C.2     
  23 C23            3.7686    -0.3854     0.5370 C.3     
  24 C24           -1.1849     4.7270     3.0753 C.3     
  25 C25           -2.1276     2.7069     1.8634 C.3     
  26 C26           -1.7239     1.5944     2.8332 C.3     
  27 C27           -2.9755     2.4309     3.1068 C.3     
  28 C28            3.7385    -1.3416     1.7311 C.3     
  29 C29            4.0578    -1.1748    -0.7413 C.3     
  30 H30           -0.9893     2.0019     0.0805 H       
  31 H31            2.3969     2.7996    -1.6674 H       
  32 H32            4.0046     2.3223     1.5252 H       
  33 H33            3.0822     4.4784    -3.3311 H       
  34 H34            6.1141     5.8855    -0.6798 H       
  35 H35            1.7508     4.2441     0.5479 H       
  36 H36           -1.9925     0.0346    -0.2034 H       
  37 H37           -1.0252    -1.1828    -1.0698 H       
  38 H38           -1.2609    -1.3206     0.6891 H       
  39 H39            4.5492     0.3601     0.6882 H       
  40 H40           -1.9778     5.4744     3.1051 H       
  41 H41           -1.2648     4.0777     3.9471 H       
  42 H42           -0.2155     5.2253     3.0811 H       
  43 H43           -2.5373     2.4090     0.8982 H       
  44 H44           -1.8683     0.5647     2.5061 H       
  45 H45           -0.8535     1.7694     3.4655 H       
  46 H46           -2.9285     3.1561     3.9191 H       
  47 H47           -3.9433     1.9515     2.9597 H       
  48 H48            2.9578    -2.0871     1.5800 H       
  49 H49            4.7038    -1.8396     1.8221 H       
  50 H50            3.5325    -0.7792     2.6418 H       
  51 H51            4.0792    -0.4936    -1.5919 H       
  52 H52            5.0231    -1.6728    -0.6502 H       
  53 H53            3.2771    -1.9203    -0.8924 H       
@<TRIPOS>BOND
   1    1    2 1
   2    1    5 2
   3    1   30 1
   4    2    3 am
   5    2   17 1
   6    3   22 1
   7    3   16 2
   8    4    5 1
   9    4    8 1
  10    4   22 2
  11    5   13 1
  12    6    7 ar
  13    6    9 ar
  14    6   31 1
  15    7    8 1
  16    7   12 ar
  17    8   32 1
  18    9   10 ar
  19    9   33 1
  20   10   11 ar
  21   10   19 1
  22   11   12 ar
  23   11   34 1
  24   12   18 1
  25   13   14 am
  26   13   35 1
  27   14   15 am
  28   14   20 2
  29   14   21 2
  30   15   24 1
  31   15   25 1
  32   17   36 1
  33   17   37 1
  34   17   38 1
  35   22   23 1
  36   23   28 1
  37   23   29 1
  38   23   39 1
  39   24   40 1
  40   24   41 1
  41   24   42 1
  42   25   26 1
  43   25   27 1
  44   25   43 1
  45   26   27 1
  46   26   44 1
  47   26   45 1
  48   27   46 1
  49   27   47 1
  50   28   48 1
  51   28   49 1
  52   28   50 1
  53   29   51 1
  54   29   52 1
  55   29   53 1

#	End of record

