#	Name: ASD07330007
#	Creating user name:	WinNT
#	Creation time:	15. 06. 2019 21:11

#	Modifying user name:	WinNT
#	Modification time:	15. 06. 2019 21:11

#	Program:	/corina/corina34_cracker 3.40 0067  02.08.2006

@<TRIPOS>MOLECULE
ASD07330007
  69   72    0    0    0
SMALL
NO_CHARGES


@<TRIPOS>ATOM
   1 C1            12.1659    -1.0799     1.5724 C.ar    
   2 C2            12.0202    -1.0447     0.1874 C.ar    
   3 C3            10.7881    -0.9842    -0.3886 C.ar    
   4 C4             9.6395    -0.9569     0.4205 C.ar    
   5 C5             9.7900    -0.9933     1.8298 C.ar    
   6 C6            11.0770    -1.0551     2.3896 C.ar    
   7 N7             8.4186    -0.8970    -0.1231 N.ar    
   8 C8             7.3383    -0.8705     0.6147 C.ar    
   9 C9             7.4049    -0.9031     2.0175 C.ar    
  10 C10            8.6426    -0.9662     2.6416 C.ar    
  11 C11            6.1623    -0.8708     2.8250 C.ar    
  12 C12            5.9635    -1.8113     3.8363 C.ar    
  13 C13            4.8100    -1.7824     4.5868 C.ar    
  14 C14            3.8379    -0.8100     4.3358 C.ar    
  15 C15            4.0384     0.1318     3.3228 C.ar    
  16 C16            5.1949     0.1037     2.5769 C.ar    
  17 C17            5.9907    -0.8029    -0.0564 C.3     
  18 C18            5.7891     0.5900    -0.6565 C.3     
  19 N19            5.9241    -1.8075    -1.1206 N.am    
  20 C20            4.9942    -2.9338    -1.0075 C.3     
  21 C21            6.7184    -1.6955    -2.2037 C.2     
  22 C22            3.6172    -2.5122    -1.5244 C.3     
  23 C23            6.6499    -2.7289    -3.2984 C.3     
  24 O24            7.4883    -0.7630    -2.2972 O.2     
  25 C25            7.6313    -2.3745    -4.3858 C.ar    
  26 C26            8.9263    -2.8545    -4.3306 C.ar    
  27 C27            9.8271    -2.5305    -5.3276 C.ar    
  28 C28            9.4318    -1.7249    -6.3818 C.ar    
  29 C29            8.1341    -1.2446    -6.4360 C.ar    
  30 C30            7.2339    -1.5741    -5.4409 C.ar    
  31 S31            2.4305    -3.8563    -1.2494 S.o2    
  32 O32            2.2670    -4.0365     0.1506 O.2     
  33 F33           10.3116    -1.4072    -7.3566 F       
  34 C34            0.9017    -3.1502    -1.9236 C.3     
  35 O35            2.8093    -4.9659    -2.0522 O.2     
  36 C36           -0.2359    -4.1627    -1.7765 C.3     
  37 C37            2.6372    -0.7791     5.1156 C.1     
  38 N38            1.6847    -0.7545     5.7341 N.1     
  39 C39            7.7024    -0.3672    -7.5827 C.3     
  40 F40            6.3597    -0.0110    -7.4175 F       
  41 F41            8.4915     0.7878    -7.6089 F       
  42 F42            7.8554    -1.0639    -8.7862 F       
  43 H43           13.1548    -1.1320     2.0033 H       
  44 H44           12.8992    -1.0654    -0.4398 H       
  45 H45           10.6938    -0.9569    -1.4641 H       
  46 H46           11.2020    -1.0835     3.4619 H       
  47 H47            8.7220    -0.9931     3.7183 H       
  48 H48            6.7148    -2.5626     4.0300 H       
  49 H49            4.6561    -2.5109     5.3691 H       
  50 H50            3.2880     0.8837     3.1278 H       
  51 H51            5.3502     0.8314     1.7941 H       
  52 H52            5.2090    -0.9988     0.6776 H       
  53 H53            4.8144     0.6389    -1.1419 H       
  54 H54            5.8386     1.3375     0.1353 H       
  55 H55            6.5708     0.7859    -1.3905 H       
  56 H56            5.3638    -3.7710    -1.5997 H       
  57 H57            4.9136    -3.2350     0.0369 H       
  58 H58            3.2864    -1.6207    -0.9914 H       
  59 H59            3.6801    -2.2955    -2.5908 H       
  60 H60            6.8986    -3.7082    -2.8896 H       
  61 H61            5.6419    -2.7533    -3.7125 H       
  62 H62            9.2345    -3.4826    -3.5079 H       
  63 H63           10.8390    -2.9054    -5.2840 H       
  64 H64            6.2218    -1.1997    -5.4830 H       
  65 H65            0.6507    -2.2400    -1.3789 H       
  66 H66            1.0444    -2.9148    -2.9783 H       
  67 H67            0.0150    -5.0728    -2.3212 H       
  68 H68           -0.3787    -4.3981    -0.7219 H       
  69 H69           -1.1546    -3.7384    -2.1817 H       
@<TRIPOS>BOND
   1    1    2 ar
   2    1    6 ar
   3    1   43 1
   4    2    3 ar
   5    2   44 1
   6    3    4 ar
   7    3   45 1
   8    4    5 ar
   9    4    7 ar
  10    5    6 ar
  11    5   10 ar
  12    6   46 1
  13    7    8 ar
  14    8    9 ar
  15    8   17 1
  16    9   10 ar
  17    9   11 1
  18   10   47 1
  19   11   12 ar
  20   11   16 ar
  21   12   13 ar
  22   12   48 1
  23   13   14 ar
  24   13   49 1
  25   14   15 ar
  26   14   37 1
  27   15   16 ar
  28   15   50 1
  29   16   51 1
  30   17   18 1
  31   17   19 1
  32   17   52 1
  33   18   53 1
  34   18   54 1
  35   18   55 1
  36   19   20 1
  37   19   21 am
  38   20   22 1
  39   20   56 1
  40   20   57 1
  41   21   23 1
  42   21   24 2
  43   22   31 1
  44   22   58 1
  45   22   59 1
  46   23   25 1
  47   23   60 1
  48   23   61 1
  49   25   26 ar
  50   25   30 ar
  51   26   27 ar
  52   26   62 1
  53   27   28 ar
  54   27   63 1
  55   28   29 ar
  56   28   33 1
  57   29   30 ar
  58   29   39 1
  59   30   64 1
  60   31   32 2
  61   31   34 1
  62   31   35 2
  63   34   36 1
  64   34   65 1
  65   34   66 1
  66   36   67 1
  67   36   68 1
  68   36   69 1
  69   37   38 3
  70   39   40 1
  71   39   41 1
  72   39   42 1

#	End of record

