#	Name: ASD01948051
#	Creating user name:	WinNT
#	Creation time:	15. 06. 2019 20:13

#	Modifying user name:	WinNT
#	Modification time:	15. 06. 2019 20:13

#	Program:	/corina/corina34_cracker 3.40 0067  02.08.2006

@<TRIPOS>MOLECULE
ASD01948051
  34   36    0    0    0
SMALL
NO_CHARGES


@<TRIPOS>ATOM
   1 C1            -0.0622     1.2737    -0.0634 C.2     
   2 C2             0.0119    -0.0946    -0.0397 C.2     
   3 C3             1.2636    -0.7327    -0.0529 C.2     
   4 C4             2.4167     0.0413    -0.0939 C.2     
   5 C5             2.2983     1.4294    -0.1146 C.2     
   6 N6             1.0865     2.0132    -0.0902 N.am    
   7 O7            -1.1667     2.0660    -0.0721 O.3     
   8 C8             0.7077     3.4405    -0.0788 C.3     
   9 C9            -0.7769     3.3854     0.3481 C.3     
  10 O10            3.3042     2.1227    -0.1550 O.2     
  11 C11            3.7752    -0.6107    -0.1151 C.3     
  12 N12            1.3471    -2.1165    -0.0249 N.pl3   
  13 C13            0.8168    -2.8276     1.0571 C.ar    
  14 C14            0.7858    -4.2182     1.0296 C.ar    
  15 C15            0.2609    -4.9170     2.1007 C.ar    
  16 C16           -0.2332    -4.2341     3.1982 C.ar    
  17 C17           -0.2037    -2.8519     3.2272 C.ar    
  18 C18            0.3256    -2.1473     2.1629 C.ar    
  19 I19           -1.0284    -5.2968     4.8191 I       
  20 F20            1.2674    -4.8846    -0.0424 F       
  21 N21           -1.1694    -0.8629    -0.0016 N.pl3   
  22 H22            1.3004     3.9929     0.6504 H       
  23 H23            0.8093     3.8764    -1.0726 H       
  24 H24           -1.3587     4.1461    -0.1725 H       
  25 H25           -0.8742     3.4931     1.4284 H       
  26 H26            4.0781    -0.7858    -1.1474 H       
  27 H27            4.4997     0.0431     0.3703 H       
  28 H28            3.7303    -1.5613     0.4165 H       
  29 H29            1.7731    -2.5916    -0.7554 H       
  30 H30            0.2361    -5.9965     2.0808 H       
  31 H31           -0.5905    -2.3223     4.0853 H       
  32 H32            0.3527    -1.0680     2.1892 H       
  33 H33           -2.0305    -0.4246     0.0843 H       
  34 H34           -1.1212    -1.8299    -0.0612 H       
@<TRIPOS>BOND
   1    1    2 2
   2    1    6 1
   3    1    7 1
   4    2    3 1
   5    2   21 1
   6    3    4 2
   7    3   12 1
   8    4    5 1
   9    4   11 1
  10    5    6 am
  11    5   10 2
  12    6    8 1
  13    7    9 1
  14    8    9 1
  15    8   22 1
  16    8   23 1
  17    9   24 1
  18    9   25 1
  19   11   26 1
  20   11   27 1
  21   11   28 1
  22   12   13 1
  23   12   29 1
  24   13   14 ar
  25   13   18 ar
  26   14   15 ar
  27   14   20 1
  28   15   16 ar
  29   15   30 1
  30   16   17 ar
  31   16   19 1
  32   17   18 ar
  33   17   31 1
  34   18   32 1
  35   21   33 1
  36   21   34 1

#	End of record

