#	Name: ASD01917145
#	Creating user name:	WinNT
#	Creation time:	15. 06. 2019 20:08

#	Modifying user name:	WinNT
#	Modification time:	15. 06. 2019 20:08

#	Program:	/corina/corina34_cracker 3.40 0067  02.08.2006

@<TRIPOS>MOLECULE
ASD01917145
  74   78    0    0    0
SMALL
NO_CHARGES


@<TRIPOS>ATOM
   1 C1             0.8105     0.8302    -0.2477 C.2     
   2 N2             0.7499    -0.4578    -0.5085 N.2     
   3 N3            -0.6070    -0.8179    -0.4758 N.pl3   
   4 C4            -1.2958     0.3113    -0.1888 C.2     
   5 N5            -0.4291     1.2922    -0.0493 N.2     
   6 C6             2.0533     1.6384    -0.1785 C.ar    
   7 C7             1.9859     3.0005     0.1076 C.ar    
   8 C8             3.2912     1.0362    -0.3938 C.ar    
   9 C9             4.4442     1.7912    -0.3280 C.ar    
  10 C10            4.3723     3.1463    -0.0485 C.ar    
  11 C11           -1.1665    -2.1520    -0.7068 C.3     
  12 C12           -1.2100    -2.9107     0.5945 C.2     
  13 N13           -1.6904    -4.1696     0.6249 N.am    
  14 O14           -0.8128    -2.3884     1.6145 O.2     
  15 C15           -1.7417    -4.9278     1.8841 C.3     
  16 C16           -3.1576    -5.4877     2.0578 C.3     
  17 N17           -3.5298    -6.2497     0.8583 N.3     
  18 C18           -3.5757    -5.3858    -0.3289 C.3     
  19 C19           -2.1827    -4.8194    -0.5993 C.3     
  20 C20           -4.7366    -6.9064     1.0417 C.ar    
  21 C21           -5.2767    -7.6898     0.0246 C.ar    
  22 C22           -6.4884    -8.3272     0.2578 C.ar    
  23 N23           -7.0862    -8.1683     1.4355 N.ar    
  24 C24           -6.5444    -7.4190     2.3739 C.ar    
  25 N25           -5.3941    -6.8021     2.1945 N.ar    
  26 C26           -2.7646     0.4224    -0.0501 C.ar    
  27 C27            3.1438     3.7481     0.1714 C.ar    
  28 C28           -3.5316    -0.7147     0.2053 C.ar    
  29 C29           -4.9004    -0.6058     0.3336 C.ar    
  30 C30           -5.5143     0.6304     0.2089 C.ar    
  31 C31           -4.7569     1.7630    -0.0448 C.ar    
  32 C32           -3.3868     1.6656    -0.1687 C.ar    
  33 F33            5.5037     3.8818     0.0154 F       
  34 F34           -6.8556     0.7318     0.3345 F       
  35 O35           -7.0541    -9.0999    -0.7014 O.3     
  36 C36           -8.3011    -9.7208    -0.3826 C.3     
  37 C37           -8.7805   -10.5460    -1.5784 C.3     
  38 N38           -7.8446   -11.6531    -1.8161 N.3     
  39 C39           -7.8659   -12.6090    -0.7008 C.3     
  40 C40           -8.1356   -12.3241    -3.0901 C.3     
  41 C41           -7.6304   -11.4610    -4.2480 C.3     
  42 O42           -6.2071   -11.3544    -4.1770 O.3     
  43 H43            1.0287     3.4704     0.2788 H       
  44 H44            3.3482    -0.0201    -0.6114 H       
  45 H45            5.4042     1.3251    -0.4944 H       
  46 H46           -2.1762    -2.0583    -1.1067 H       
  47 H47           -0.5417    -2.6895    -1.4201 H       
  48 H48           -1.0254    -5.7485     1.8469 H       
  49 H49           -1.5040    -4.2682     2.7187 H       
  50 H50           -3.1852    -6.1432     2.9282 H       
  51 H51           -3.8591    -4.6655     2.1987 H       
  52 H52           -3.9067    -5.9673    -1.1894 H       
  53 H53           -4.2715    -4.5650    -0.1548 H       
  54 H54           -2.2345    -4.0899    -1.4075 H       
  55 H55           -1.5058    -5.6281    -0.8750 H       
  56 H56           -4.7666    -7.7985    -0.9211 H       
  57 H57           -7.0557    -7.3108     3.3191 H       
  58 H58            3.0922     4.8047     0.3887 H       
  59 H59           -3.0542    -1.6787     0.3020 H       
  60 H60           -5.4950    -1.4855     0.5313 H       
  61 H61           -5.2400     2.7240    -0.1416 H       
  62 H62           -2.7974     2.5488    -0.3663 H       
  63 H63           -8.1717   -10.3735     0.4808 H       
  64 H64           -9.0400    -8.9538    -0.1507 H       
  65 H65           -9.7721   -10.9471    -1.3690 H       
  66 H66           -8.8247    -9.9114    -2.4635 H       
  67 H67           -8.8891   -12.9422    -0.5273 H       
  68 H68           -7.2409   -13.4676    -0.9462 H       
  69 H69           -7.4834   -12.1265     0.1986 H       
  70 H70           -7.6353   -13.2923    -3.1134 H       
  71 H71           -9.2116   -12.4687    -3.1872 H       
  72 H72           -7.9135   -11.9213    -5.1947 H       
  73 H73           -8.0730   -10.4672    -4.1805 H       
  74 H74           -5.8171   -10.8198    -4.8821 H       
@<TRIPOS>BOND
   1    1    2 2
   2    1    6 1
   3    1    5 1
   4    2    3 1
   5    3    4 1
   6    3   11 1
   7    4    5 2
   8    4   26 1
   9    6    7 ar
  10    6    8 ar
  11    7   27 ar
  12    7   43 1
  13    8    9 ar
  14    8   44 1
  15    9   10 ar
  16    9   45 1
  17   10   27 ar
  18   10   33 1
  19   11   12 1
  20   11   46 1
  21   11   47 1
  22   12   13 am
  23   12   14 2
  24   13   15 1
  25   13   19 1
  26   15   16 1
  27   15   48 1
  28   15   49 1
  29   16   17 1
  30   16   50 1
  31   16   51 1
  32   17   18 1
  33   17   20 1
  34   18   19 1
  35   18   52 1
  36   18   53 1
  37   19   54 1
  38   19   55 1
  39   20   21 ar
  40   20   25 ar
  41   21   22 ar
  42   21   56 1
  43   22   23 ar
  44   22   35 1
  45   23   24 ar
  46   24   25 ar
  47   24   57 1
  48   26   28 ar
  49   26   32 ar
  50   27   58 1
  51   28   29 ar
  52   28   59 1
  53   29   30 ar
  54   29   60 1
  55   30   31 ar
  56   30   34 1
  57   31   32 ar
  58   31   61 1
  59   32   62 1
  60   35   36 1
  61   36   37 1
  62   36   63 1
  63   36   64 1
  64   37   38 1
  65   37   65 1
  66   37   66 1
  67   38   39 1
  68   38   40 1
  69   39   67 1
  70   39   68 1
  71   39   69 1
  72   40   41 1
  73   40   70 1
  74   40   71 1
  75   41   42 1
  76   41   72 1
  77   41   73 1
  78   42   74 1

#	End of record

