#	Name: ASD01911297
#	Creating user name:	WinNT
#	Creation time:	15. 06. 2019 19:57

#	Modifying user name:	WinNT
#	Modification time:	15. 06. 2019 19:57

#	Program:	/corina/corina34_cracker 3.40 0067  02.08.2006

@<TRIPOS>MOLECULE
ASD01911297
  34   36    0    0    0
SMALL
NO_CHARGES


@<TRIPOS>ATOM
   1 O1            -0.0163     1.3525     0.0095 O.3     
   2 C2             0.0021    -0.0041     0.0020 C.ar    
   3 C3            -1.1932    -0.7080     0.0096 C.ar    
   4 C4            -1.1790    -2.0935     0.0022 C.ar    
   5 C5             0.0559    -2.7657    -0.0194 C.ar    
   6 C6             1.2527    -2.0433    -0.0238 C.ar    
   7 C7             1.2209    -0.6779    -0.0190 C.ar    
   8 O8            -2.3435    -2.7826     0.0217 O.3     
   9 C9            -2.3531    -4.1261    -0.4605 C.3     
  10 C10           -1.2527    -4.9290     0.2486 C.3     
  11 C11            0.0667    -4.2362    -0.0420 C.2     
  12 O12            1.0776    -4.8633    -0.2809 O.2     
  13 C13            1.2480     2.0185     0.0010 C.3     
  14 C14            1.0303     3.5096     0.0111 C.ar    
  15 C15            0.9423     4.1840     1.2110 C.ar    
  16 C16            0.7410     5.5659     1.2184 C.ar    
  17 C17            0.6302     6.2553     0.0095 C.ar    
  18 C18            0.7201     5.5682    -1.1835 C.ar    
  19 C19            0.9248     4.2000    -1.1836 C.ar    
  20 C20            0.6482     6.2726     2.4605 C.1     
  21 N21            0.5746     6.8332     3.4458 N.1     
  22 H22           -2.1336    -0.1769     0.0218 H       
  23 H23            2.1992    -2.5631    -0.0357 H       
  24 H24            2.1446    -0.1184    -0.0223 H       
  25 H25           -3.3231    -4.5792    -0.2558 H       
  26 H26           -2.1698    -4.1282    -1.5350 H       
  27 H27           -1.4364    -4.9420     1.3229 H       
  28 H28           -1.2296    -5.9482    -0.1373 H       
  29 H29            1.8174     1.7284     0.8840 H       
  30 H30            1.8004     1.7380    -0.8958 H       
  31 H31            1.0285     3.6446     2.1426 H       
  32 H32            0.4741     7.3240     0.0081 H       
  33 H33            0.6342     6.1002    -2.1195 H       
  34 H34            0.9944     3.6670    -2.1204 H       
@<TRIPOS>BOND
   1    1    2 1
   2    1   13 1
   3    2    3 ar
   4    2    7 ar
   5    3    4 ar
   6    3   22 1
   7    4    5 ar
   8    4    8 1
   9    5    6 ar
  10    5   11 1
  11    6    7 ar
  12    6   23 1
  13    7   24 1
  14    8    9 1
  15    9   10 1
  16    9   25 1
  17    9   26 1
  18   10   11 1
  19   10   27 1
  20   10   28 1
  21   11   12 2
  22   13   14 1
  23   13   29 1
  24   13   30 1
  25   14   15 ar
  26   14   19 ar
  27   15   16 ar
  28   15   31 1
  29   16   17 ar
  30   16   20 1
  31   17   18 ar
  32   17   32 1
  33   18   19 ar
  34   18   33 1
  35   19   34 1
  36   20   21 3

#	End of record

