#	Name: ASD01901609
#	Creating user name:	WinNT
#	Creation time:	15. 06. 2019 19:54

#	Modifying user name:	WinNT
#	Modification time:	15. 06. 2019 19:54

#	Program:	/corina/corina34_cracker 3.40 0067  02.08.2006

@<TRIPOS>MOLECULE
ASD01901609
  46   50    0    0    0
SMALL
NO_CHARGES


@<TRIPOS>ATOM
   1 C1             1.7741     1.3753     0.7142 C.3     
   2 C2             3.2438     1.7210     0.4609 C.3     
   3 O3             3.6353     1.2220    -0.8197 O.3     
   4 C4             3.5306    -0.1972    -0.9497 C.3     
   5 C5             2.0724    -0.6201    -0.7531 C.3     
   6 H6             1.4550    -0.1715    -1.5314 H       
   7 C7             1.5913    -0.1427     0.6206 C.3     
   8 O8             1.9740    -2.0438    -0.8267 O.3     
   9 C9             1.7495    -2.5825    -2.0495 C.ar    
  10 N10            1.6372    -1.8017    -3.1052 N.ar    
  11 C11            1.4173    -2.2738    -4.3259 C.ar    
  12 C12            1.2918    -3.6058    -4.5704 C.ar    
  13 C13            1.3996    -4.5073    -3.4925 C.ar    
  14 C14            1.2822    -5.8911    -3.6663 C.ar    
  15 C15            1.3978    -6.7225    -2.5701 C.ar    
  16 N16            1.2820    -8.1024    -2.7350 N.pl3   
  17 C17            0.7813    -8.8913    -1.6946 C.2     
  18 N18            0.2928    -8.4555    -0.5638 N.2     
  19 N19           -0.1102    -9.5336     0.2310 N.pl3   
  20 H20           -0.5038    -9.4645     1.1149 H       
  21 C21            0.1396   -10.7025    -0.4381 C.ar    
  22 C22           -0.0536   -12.0502    -0.1367 C.ar    
  23 C23            0.3265   -12.9904    -1.0741 C.ar    
  24 C24            0.8837   -12.5751    -2.2765 C.ar    
  25 N25            1.0590   -11.3012    -2.5449 N.ar    
  26 C26            0.7046   -10.3540    -1.6797 C.ar    
  27 C27            1.6306    -6.1940    -1.2949 C.ar    
  28 C28            1.7480    -4.8520    -1.1038 C.ar    
  29 C29            1.6410    -3.9806    -2.1973 C.ar    
  30 H30            1.4858     1.7162     1.7086 H       
  31 H31            1.1506     1.8641    -0.0344 H       
  32 H32            3.3718     2.8032     0.4840 H       
  33 H33            3.8628     1.2650     1.2335 H       
  34 H34            3.8652    -0.4969    -1.9429 H       
  35 H35            4.1534    -0.6783    -0.1956 H       
  36 H36            2.1762    -0.6292     1.4011 H       
  37 H37            0.5373    -0.3914     0.7444 H       
  38 H38            1.3353    -1.5797    -5.1493 H       
  39 H39            1.1124    -3.9661    -5.5726 H       
  40 H40            1.1026    -6.3043    -4.6478 H       
  41 H41            1.5488    -8.5150    -3.5714 H       
  42 H42           -0.4886   -12.3508     0.8051 H       
  43 H43            0.1914   -14.0429    -0.8731 H       
  44 H44            1.1794   -13.3148    -3.0057 H       
  45 H45            1.7179    -6.8613    -0.4502 H       
  46 H46            1.9276    -4.4594    -0.1139 H       
@<TRIPOS>BOND
   1    1    7 1
   2    1    2 1
   3    1   30 1
   4    1   31 1
   5    2    3 1
   6    2   32 1
   7    2   33 1
   8    3    4 1
   9    4    5 1
  10    4   34 1
  11    4   35 1
  12    5    6 1
  13    5    7 1
  14    5    8 1
  15    7   36 1
  16    7   37 1
  17    8    9 1
  18    9   29 ar
  19    9   10 ar
  20   10   11 ar
  21   11   12 ar
  22   11   38 1
  23   12   13 ar
  24   12   39 1
  25   13   29 ar
  26   13   14 ar
  27   14   15 ar
  28   14   40 1
  29   15   16 1
  30   15   27 ar
  31   16   17 1
  32   16   41 1
  33   17   26 1
  34   17   18 2
  35   18   19 1
  36   19   20 1
  37   19   21 1
  38   21   26 ar
  39   21   22 ar
  40   22   23 ar
  41   22   42 1
  42   23   24 ar
  43   23   43 1
  44   24   25 ar
  45   24   44 1
  46   25   26 ar
  47   27   28 ar
  48   27   45 1
  49   28   29 ar
  50   28   46 1

#	End of record

