#	Name: ASD00431003
#	Creating user name:	WinNT
#	Creation time:	15. 06. 2019 18:35

#	Modifying user name:	WinNT
#	Modification time:	15. 06. 2019 18:35

#	Program:	/corina/corina34_cracker 3.40 0067  02.08.2006

@<TRIPOS>MOLECULE
ASD00431003
  29   29    0    0    0
SMALL
NO_CHARGES


@<TRIPOS>ATOM
   1 C1            -0.0181     1.4856     0.0102 C.2     
   2 C2             0.0021    -0.0041     0.0020 C.3     
   3 C3             1.2394    -0.4850    -0.7112 C.2     
   4 O4             1.0335     2.0791     0.0034 O.2     
   5 O5             2.0444    -1.1718    -0.1279 O.2     
   6 C6            -1.3068     2.2879     0.0206 C.3     
   7 C7            -2.3475     1.6766     0.9779 C.3     
   8 C8            -1.6584     1.2018     2.2347 C.3     
   9 C9            -1.3044    -0.2711     2.0871 C.3     
  10 C10            0.0078    -0.5332     1.4588 C.3     
  11 O11            1.4473    -0.1504    -1.9944 O.3     
  12 C12            2.7230    -0.1682    -4.0686 C.3     
  13 C13            2.6603    -0.6490    -2.6175 C.3     
  14 H14           -0.8824    -0.3761    -0.5151 H       
  15 H15           -1.0885     3.3079     0.3367 H       
  16 H16           -1.7205     2.3100    -0.9876 H       
  17 H17           -3.0920     2.4302     1.2343 H       
  18 H18           -2.8373     0.8331     0.4913 H       
  19 H19           -0.7484     1.7809     2.3919 H       
  20 H20           -2.3253     1.3323     3.0870 H       
  21 H21           -1.3075    -0.7268     3.0772 H       
  22 H22           -2.0777    -0.7527     1.4885 H       
  23 H23            0.1985    -1.6064     1.4536 H       
  24 H24            0.7890    -0.0311     2.0294 H       
  25 H25            1.8553    -0.5411    -4.6127 H       
  26 H26            2.7248     0.9216    -4.0905 H       
  27 H27            3.6336    -0.5425    -4.5364 H       
  28 H28            3.5280    -0.2761    -2.0733 H       
  29 H29            2.6585    -1.7388    -2.5956 H       
@<TRIPOS>BOND
   1    1    2 1
   2    1    4 2
   3    1    6 1
   4    2    3 1
   5    2   10 1
   6    2   14 1
   7    3    5 2
   8    3   11 1
   9    6    7 1
  10    6   15 1
  11    6   16 1
  12    7    8 1
  13    7   17 1
  14    7   18 1
  15    8    9 1
  16    8   19 1
  17    8   20 1
  18    9   10 1
  19    9   21 1
  20    9   22 1
  21   10   23 1
  22   10   24 1
  23   11   13 1
  24   12   13 1
  25   12   25 1
  26   12   26 1
  27   12   27 1
  28   13   28 1
  29   13   29 1

#	End of record

