#	Name: ASD02030730
#	Creating user name:	WinNT
#	Creation time:	15. 06. 2019 20:15

#	Modifying user name:	WinNT
#	Modification time:	15. 06. 2019 20:15

#	Program:	/corina/corina34_cracker 3.40 0067  02.08.2006

@<TRIPOS>MOLECULE
ASD02030730
  32   34    0    0    0
SMALL
NO_CHARGES


@<TRIPOS>ATOM
   1 N1            -0.0169     1.3957     0.0097 N.2     
   2 N2             0.0021    -0.0041     0.0020 N.am    
   3 C3             1.1646    -0.6797    -0.0123 C.2     
   4 N4             2.3448    -0.0325    -0.0200 N.am    
   5 C5             2.3757     1.3164    -0.0131 C.2     
   6 C6             1.1074     2.0610     0.0026 C.2     
   7 O7             1.1494    -1.8958    -0.0178 O.2     
   8 O8             3.4386     1.9089    -0.0192 O.2     
   9 C9            -1.2627    -0.7434     0.0101 C.3     
  10 C10           -1.6892    -1.0085     1.4554 C.3     
  11 C11           -3.0505    -1.6696     1.6802 C.3     
  12 C12           -1.7653    -2.4664     1.9133 C.3     
  13 C13           -3.8372    -1.2472     2.8942 C.ar    
  14 C14           -5.0908    -0.6843     2.7439 C.ar    
  15 C15           -5.8124    -0.2967     3.8575 C.ar    
  16 C16           -5.2806    -0.4725     5.1213 C.ar    
  17 C17           -4.0274    -1.0362     5.2716 C.ar    
  18 C18           -3.3076    -1.4278     4.1582 C.ar    
  19 O19            1.1051     3.4197     0.0094 O.3     
  20 H20            3.1737    -0.5362    -0.0303 H       
  21 H21           -2.0303    -0.1556    -0.4933 H       
  22 H22           -1.1322    -1.6923    -0.5101 H       
  23 H23           -1.3626    -0.2680     2.1855 H       
  24 H24           -3.6423    -1.9157     0.7985 H       
  25 H25           -1.5115    -3.2366     1.1850 H       
  26 H26           -1.4888    -2.6850     2.9448 H       
  27 H27           -5.5063    -0.5470     1.7566 H       
  28 H28           -6.7915     0.1437     3.7401 H       
  29 H29           -5.8441    -0.1691     5.9912 H       
  30 H30           -3.6118    -1.1733     6.2589 H       
  31 H31           -2.3301    -1.8716     4.2758 H       
  32 H32            1.9878     3.8145     0.0032 H       
@<TRIPOS>BOND
   1    1    2 1
   2    1    6 2
   3    2    3 am
   4    2    9 1
   5    3    4 am
   6    3    7 2
   7    4    5 am
   8    4   20 1
   9    5    6 1
  10    5    8 2
  11    6   19 1
  12    9   10 1
  13    9   21 1
  14    9   22 1
  15   10   11 1
  16   10   12 1
  17   10   23 1
  18   11   12 1
  19   11   13 1
  20   11   24 1
  21   12   25 1
  22   12   26 1
  23   13   14 ar
  24   13   18 ar
  25   14   15 ar
  26   14   27 1
  27   15   16 ar
  28   15   28 1
  29   16   17 ar
  30   16   29 1
  31   17   18 ar
  32   17   30 1
  33   18   31 1
  34   19   32 1

#	End of record

