#	Name: ASD06170359
#	Creating user name:	WinNT
#	Creation time:	15. 06. 2019 21:05

#	Modifying user name:	WinNT
#	Modification time:	15. 06. 2019 21:05

#	Program:	/corina/corina34_cracker 3.40 0067  02.08.2006

@<TRIPOS>MOLECULE
ASD06170359
  71   75    0    0    0
SMALL
NO_CHARGES


@<TRIPOS>ATOM
   1 N1             0.0150     0.8987    -0.1496 N.am    
   2 N2             0.2171    -0.4706     0.0468 N.pl3   
   3 C3             1.5175    -0.7724    -0.1301 C.2     
   4 C4             2.1978     0.3874    -0.4457 C.2     
   5 C5             1.1996     1.4685    -0.4538 C.2     
   6 C6             3.6343     0.5163    -0.7189 C.2     
   7 O7             4.3520    -0.4656    -0.6781 O.2     
   8 N8             4.1584     1.7222    -1.0150 N.am    
   9 C9            -0.8304    -1.4342     0.3936 C.3     
  10 C10            5.5468     1.8781    -1.1095 C.ar    
  11 C11            6.3428     0.8022    -1.4791 C.ar    
  12 C12            8.2930     2.1897    -1.2970 C.ar    
  13 C13            6.1272     3.1105    -0.8391 C.ar    
  14 O14            9.6411     2.3430    -1.3897 O.3     
  15 N15           11.2998     2.4650    -5.1639 N.ar    
  16 C16           12.1031     2.6720    -4.1136 C.ar    
  17 C17           11.5727     2.6383    -2.8009 C.ar    
  18 C18           10.1934     2.3850    -2.6272 C.ar    
  19 C19            9.4237     2.1806    -3.7590 C.ar    
  20 C20           10.0177     2.2284    -5.0138 C.ar    
  21 O21            1.4026     2.6451    -0.6889 O.2     
  22 C22           -1.2108     1.5653    -0.0530 C.ar    
  23 C23           12.4172     2.8547    -1.7018 C.ar    
  24 C24           13.7449     3.0963    -1.9072 C.ar    
  25 C25           14.2729     3.1308    -3.2057 C.ar    
  26 C26           13.4734     2.9235    -4.2926 C.ar    
  27 C27           -2.0687     1.2945     1.0051 C.ar    
  28 C28           -3.2784     1.9544     1.0976 C.ar    
  29 C29           -3.6360     2.8836     0.1380 C.ar    
  30 C30           -2.7840     3.1556    -0.9168 C.ar    
  31 C31           -1.5702     2.5037    -1.0117 C.ar    
  32 O32           15.5978     3.3741    -3.3845 O.3     
  33 C33           16.0773     3.3969    -4.7304 C.3     
  34 C34           -1.3509    -2.0842    -0.8625 C.2     
  35 C35            2.1279    -2.1445    -0.0040 C.3     
  36 C36           -0.8605    -3.2330    -1.2571 C.2     
  37 C37            7.4964     3.2650    -0.9330 C.ar    
  38 O38           14.5635     3.3061    -0.8419 O.3     
  39 C39           13.9655     3.2587     0.4551 C.3     
  40 C40            7.7135     0.9573    -1.5726 C.ar    
  41 C41           -2.4356    -1.4125    -1.6646 C.3     
  42 F42            8.4891    -0.0890    -1.9317 F       
  43 H43            3.5738     2.4821    -1.1627 H       
  44 H44           -0.4180    -2.1975     1.0535 H       
  45 H45           -1.6458    -0.9179     0.9002 H       
  46 H46            5.8916    -0.1554    -1.6932 H       
  47 H47            5.5076     3.9484    -0.5556 H       
  48 H48            8.3658     1.9838    -3.6670 H       
  49 H49            9.4074     2.0671    -5.8901 H       
  50 H50           12.0188     2.8307    -0.6982 H       
  51 H51           13.8934     2.9525    -5.2872 H       
  52 H52           -1.7903     0.5684     1.7545 H       
  53 H53           -3.9460     1.7442     1.9202 H       
  54 H54           -4.5828     3.3978     0.2122 H       
  55 H55           -3.0662     3.8819    -1.6646 H       
  56 H56           -0.9052     2.7165    -1.8357 H       
  57 H57           15.8912     2.4304    -5.1988 H       
  58 H58           15.5585     4.1768    -5.2878 H       
  59 H59           17.1481     3.6009    -4.7312 H       
  60 H60            2.0999    -2.6450    -0.9719 H       
  61 H61            3.1621    -2.0530     0.3280 H       
  62 H62            1.5632    -2.7280     0.7232 H       
  63 H63           -0.0831    -3.7144    -0.6823 H       
  64 H64           -1.2335    -3.6988    -2.1573 H       
  65 H65            7.9473     4.2227    -0.7189 H       
  66 H66           14.7270     3.4420     1.2132 H       
  67 H67           13.1909     4.0223     0.5261 H       
  68 H68           13.5225     2.2758     0.6152 H       
  69 H69           -1.9839    -0.7568    -2.4090 H       
  70 H70           -3.0388    -2.1696    -2.1655 H       
  71 H71           -3.0686    -0.8252    -0.9994 H       
@<TRIPOS>BOND
   1    1    2 1
   2    1    5 am
   3    1   22 1
   4    2    3 1
   5    2    9 1
   6    3    4 2
   7    3   35 1
   8    4    5 1
   9    4    6 1
  10    5   21 2
  11    6    7 2
  12    6    8 am
  13    8   10 1
  14    8   43 1
  15    9   34 1
  16    9   44 1
  17    9   45 1
  18   10   11 ar
  19   10   13 ar
  20   11   40 ar
  21   11   46 1
  22   12   37 ar
  23   12   14 1
  24   12   40 ar
  25   13   37 ar
  26   13   47 1
  27   14   18 1
  28   15   16 ar
  29   15   20 ar
  30   16   17 ar
  31   16   26 ar
  32   17   18 ar
  33   17   23 ar
  34   18   19 ar
  35   19   20 ar
  36   19   48 1
  37   20   49 1
  38   22   27 ar
  39   22   31 ar
  40   23   24 ar
  41   23   50 1
  42   24   25 ar
  43   24   38 1
  44   25   26 ar
  45   25   32 1
  46   26   51 1
  47   27   28 ar
  48   27   52 1
  49   28   29 ar
  50   28   53 1
  51   29   30 ar
  52   29   54 1
  53   30   31 ar
  54   30   55 1
  55   31   56 1
  56   32   33 1
  57   33   57 1
  58   33   58 1
  59   33   59 1
  60   34   36 2
  61   34   41 1
  62   35   60 1
  63   35   61 1
  64   35   62 1
  65   36   63 1
  66   36   64 1
  67   37   65 1
  68   38   39 1
  69   39   66 1
  70   39   67 1
  71   39   68 1
  72   40   42 1
  73   41   69 1
  74   41   70 1
  75   41   71 1

#	End of record

