#	Name: ASD01915066
#	Creating user name:	WinNT
#	Creation time:	15. 06. 2019 20:04

#	Modifying user name:	WinNT
#	Modification time:	15. 06. 2019 20:04

#	Program:	/corina/corina34_cracker 3.40 0067  02.08.2006

@<TRIPOS>MOLECULE
ASD01915066
  39   42    0    0    0
SMALL
NO_CHARGES


@<TRIPOS>ATOM
   1 C1             0.0645     0.5898    -0.0131 C.ar    
   2 C2             0.3904    -0.7470     0.2246 C.ar    
   3 N3            -0.5730    -1.6493     0.4227 N.ar    
   4 C4            -1.8461    -1.3312     0.4042 C.ar    
   5 C5            -2.2530    -0.0195     0.1739 C.ar    
   6 C6            -1.2970     0.9585    -0.0330 C.ar    
   7 C7             1.2516     1.4178    -0.2040 C.2     
   8 C8             2.4035     0.7564    -0.1177 C.2     
   9 S9             2.1392    -0.9454     0.2062 S.3     
  10 C10            1.1801     2.8736    -0.4726 C.ar    
  11 C11            1.4782     3.7941     0.5305 C.ar    
  12 S12            3.9911     1.4972    -0.3057 S.o2    
  13 O13            3.8543     2.8498     0.1078 O.2     
  14 O14            4.9250     0.5975     0.2754 O.2     
  15 C15            4.3467     1.5378    -2.0309 C.ar    
  16 C16            4.0945     2.6855    -2.7602 C.ar    
  17 C17            4.8815     0.4264    -2.6495 C.ar    
  18 C18            5.1636     0.4591    -4.0165 C.ar    
  19 C19            4.9023     1.6181    -4.7498 C.ar    
  20 C20            4.3717     2.7261    -4.1176 C.ar    
  21 N21            1.4151     5.0886     0.2932 N.ar    
  22 C22            1.0718     5.5638    -0.8892 C.ar    
  23 C23            0.7608     4.7135    -1.9372 C.ar    
  24 C24            0.8179     3.3457    -1.7386 C.ar    
  25 N25           -3.6145     0.3066     0.1563 N.pl3   
  26 F26            4.1178     3.8490    -4.8246 F       
  27 Cl27           1.0084     7.2812    -1.1344 Cl      
  28 C28            5.7191    -0.6913    -4.6637 C.1     
  29 N29            6.1597    -1.6038    -5.1771 N.1     
  30 H30           -2.5888    -2.0976     0.5697 H       
  31 H31           -1.5874     1.9829    -0.2133 H       
  32 H32            1.7633     3.4431     1.5113 H       
  33 H33            3.6793     3.5537    -2.2700 H       
  34 H34            5.0818    -0.4672    -2.0772 H       
  35 H35            5.1182     1.6499    -5.8075 H       
  36 H36            0.4809     5.1140    -2.9004 H       
  37 H37            0.5806     2.6598    -2.5383 H       
  38 H38           -4.2803    -0.3830     0.3051 H       
  39 H39           -3.8919     1.2220    -0.0047 H       
@<TRIPOS>BOND
   1    1    2 ar
   2    1    7 1
   3    1    6 ar
   4    2    3 ar
   5    2    9 1
   6    3    4 ar
   7    4    5 ar
   8    4   30 1
   9    5    6 ar
  10    5   25 1
  11    6   31 1
  12    7    8 2
  13    7   10 1
  14    8    9 1
  15    8   12 1
  16   10   11 ar
  17   10   24 ar
  18   11   21 ar
  19   11   32 1
  20   12   13 2
  21   12   14 2
  22   12   15 1
  23   15   16 ar
  24   15   17 ar
  25   16   20 ar
  26   16   33 1
  27   17   18 ar
  28   17   34 1
  29   18   19 ar
  30   18   28 1
  31   19   20 ar
  32   19   35 1
  33   20   26 1
  34   21   22 ar
  35   22   23 ar
  36   22   27 1
  37   23   24 ar
  38   23   36 1
  39   24   37 1
  40   25   38 1
  41   25   39 1
  42   28   29 3

#	End of record

