#	Name: ASD08178521
#	Creating user name:	WinNT
#	Creation time:	15. 06. 2019 21:19

#	Modifying user name:	WinNT
#	Modification time:	15. 06. 2019 21:19

#	Program:	/corina/corina34_cracker 3.40 0067  02.08.2006

@<TRIPOS>MOLECULE
ASD08178521
  59   63    0    0    0
SMALL
NO_CHARGES


@<TRIPOS>ATOM
   1 C1            -0.0155     1.2947     0.0092 C.2     
   2 N2             0.0021    -0.0041     0.0020 N.2     
   3 N3            -1.1080    -0.6054     0.0101 N.2     
   4 C4            -2.1692     0.1372     0.0249 C.2     
   5 S5            -1.6454     1.8216     0.0350 S.3     
   6 C6            -3.5951    -0.3504     0.0368 C.3     
   7 C7            -4.0631    -0.5225     1.4832 C.3     
   8 C8            -5.5281    -0.9002     1.7115 C.3     
   9 C9            -6.2238    -0.3188     2.9439 C.3     
  10 C10           -7.6807    -0.7036     2.9266 C.2     
  11 N11           -8.1960    -1.7682     3.4546 N.2     
  12 N12           -9.4444    -1.9117     3.3327 N.2     
  13 C13          -10.0980    -0.9883     2.6944 C.2     
  14 S14           -8.9918     0.2187     2.1903 S.3     
  15 N15          -11.4695    -0.9782     2.4639 N.am    
  16 C16          -12.2369    -1.9880     2.9197 C.2     
  17 C17          -13.7230    -1.9770     2.6700 C.3     
  18 O18          -11.7315    -2.9056     3.5309 O.2     
  19 C19          -14.3437    -3.2085     3.2775 C.ar    
  20 C20          -14.7966    -3.1819     4.5833 C.ar    
  21 C21          -15.3658    -4.3117     5.1405 C.ar    
  22 C22          -15.4826    -5.4678     4.3919 C.ar    
  23 C23          -15.0305    -5.4942     3.0858 C.ar    
  24 C24          -14.4652    -4.3631     2.5271 C.ar    
  25 C25           -4.4259    -1.9354     1.9449 C.3     
  26 N26            1.1034     2.1206     0.0029 N.am    
  27 C27            2.3386     1.5818    -0.0123 C.2     
  28 O28            2.4745     0.3766    -0.0205 O.2     
  29 C29            3.5511     2.4767    -0.0190 C.3     
  30 C30            4.7989     1.6319    -0.0361 C.ar    
  31 C31            5.3595     1.2513    -1.2410 C.ar    
  32 C32            6.5041     0.4764    -1.2567 C.ar    
  33 C33            7.0884     0.0825    -0.0674 C.ar    
  34 C34            6.5283     0.4638     1.1375 C.ar    
  35 C35            5.3862     1.2424     1.1531 C.ar    
  36 H36           -4.2319     0.3767    -0.4671 H       
  37 H37           -3.6561    -1.3075    -0.4812 H       
  38 H38           -3.5951     0.1405     2.2109 H       
  39 H39           -6.1585    -1.0257     0.8312 H       
  40 H40           -5.7547    -0.7126     3.8455 H       
  41 H41           -6.1348     0.7675     2.9328 H       
  42 H42          -11.8737    -0.2443     1.9752 H       
  43 H43          -14.1611    -1.0879     3.1235 H       
  44 H44          -13.9110    -1.9673     1.5963 H       
  45 H45          -14.7053    -2.2786     5.1682 H       
  46 H46          -15.7190    -4.2911     6.1609 H       
  47 H47          -15.9267    -6.3507     4.8275 H       
  48 H48          -15.1215    -6.3976     2.5010 H       
  49 H49          -14.1121    -4.3837     1.5067 H       
  50 H50           -4.3311    -2.7422     1.2182 H       
  51 H51           -4.1964    -2.2022     2.9766 H       
  52 H52            0.9948     3.0845     0.0095 H       
  53 H53            3.5296     3.1110    -0.9053 H       
  54 H54            3.5470     3.1008     0.8746 H       
  55 H55            4.9030     1.5591    -2.1701 H       
  56 H56            6.9417     0.1785    -2.1980 H       
  57 H57            7.9822    -0.5236    -0.0796 H       
  58 H58            6.9846     0.1558     2.0666 H       
  59 H59            4.9486     1.5404     2.0945 H       
@<TRIPOS>BOND
   1    1    2 2
   2    1   26 1
   3    1    5 1
   4    2    3 1
   5    3    4 2
   6    4    5 1
   7    4    6 1
   8    6    7 1
   9    6   36 1
  10    6   37 1
  11    7    8 1
  12    7   25 1
  13    7   38 1
  14    8    9 1
  15    8   25 1
  16    8   39 1
  17    9   10 1
  18    9   40 1
  19    9   41 1
  20   10   11 2
  21   10   14 1
  22   11   12 1
  23   12   13 2
  24   13   14 1
  25   13   15 1
  26   15   16 am
  27   15   42 1
  28   16   17 1
  29   16   18 2
  30   17   19 1
  31   17   43 1
  32   17   44 1
  33   19   20 ar
  34   19   24 ar
  35   20   21 ar
  36   20   45 1
  37   21   22 ar
  38   21   46 1
  39   22   23 ar
  40   22   47 1
  41   23   24 ar
  42   23   48 1
  43   24   49 1
  44   25   50 1
  45   25   51 1
  46   26   27 am
  47   26   52 1
  48   27   28 2
  49   27   29 1
  50   29   30 1
  51   29   53 1
  52   29   54 1
  53   30   31 ar
  54   30   35 ar
  55   31   32 ar
  56   31   55 1
  57   32   33 ar
  58   32   56 1
  59   33   34 ar
  60   33   57 1
  61   34   35 ar
  62   34   58 1
  63   35   59 1

#	End of record

