#	Name: ASD01916348
#	Creating user name:	WinNT
#	Creation time:	15. 06. 2019 20:07

#	Modifying user name:	WinNT
#	Modification time:	15. 06. 2019 20:07

#	Program:	/corina/corina34_cracker 3.40 0067  02.08.2006

@<TRIPOS>MOLECULE
ASD01916348
  31   33    0    0    0
SMALL
NO_CHARGES


@<TRIPOS>ATOM
   1 C1            -0.0307     1.5477    -0.0187 C.3     
   2 C2            -0.0180     0.0136    -0.0311 C.3     
   3 C3             0.6143    -0.4801    -1.3303 C.3     
   4 C4             1.9757     0.1223    -1.5339 C.ar    
   5 C5             2.3506     1.3161    -0.9075 C.ar    
   6 C6             1.4114     2.0140    -0.0185 C.2     
   7 N7             2.8506    -0.4784    -2.3219 N.ar    
   8 C8             4.0567     0.0386    -2.5174 C.ar    
   9 N9             4.4451     1.1699    -1.9418 N.ar    
  10 C10            3.6324     1.8324    -1.1392 C.ar    
  11 N11            4.9380    -0.6228    -3.3473 N.pl3   
  12 C12            6.1698    -0.0424    -3.6637 C.ar    
  13 O13            1.7766     2.9294     0.6888 O.2     
  14 C14            7.2920    -0.8419    -3.8344 C.ar    
  15 C15            8.5094    -0.2640    -4.1474 C.ar    
  16 C16            8.6081     1.1101    -4.2896 C.ar    
  17 C17            7.4912     1.9073    -4.1193 C.ar    
  18 C18            6.2721     1.3352    -3.8134 C.ar    
  19 F19            9.6025    -1.0403    -4.3139 F       
  20 H20           -0.5405     1.9211    -0.9068 H       
  21 H21           -0.5361     1.9067     0.8779 H       
  22 H22            0.5614    -0.3519     0.8167 H       
  23 H23           -1.0400    -0.3587     0.0398 H       
  24 H24            0.7057    -1.5656    -1.2934 H       
  25 H25           -0.0272    -0.2046    -2.1673 H       
  26 H26            3.9490     2.7530    -0.6715 H       
  27 H27            4.7030    -1.4906    -3.7114 H       
  28 H28            7.2147    -1.9133    -3.7227 H       
  29 H29            9.5592     1.5598    -4.5336 H       
  30 H30            7.5713     2.9785    -4.2305 H       
  31 H31            5.4006     1.9591    -3.6810 H       
@<TRIPOS>BOND
   1    1    2 1
   2    1    6 1
   3    1   20 1
   4    1   21 1
   5    2    3 1
   6    2   22 1
   7    2   23 1
   8    3    4 1
   9    3   24 1
  10    3   25 1
  11    4    5 ar
  12    4    7 ar
  13    5    6 1
  14    5   10 ar
  15    6   13 2
  16    7    8 ar
  17    8    9 ar
  18    8   11 1
  19    9   10 ar
  20   10   26 1
  21   11   12 1
  22   11   27 1
  23   12   14 ar
  24   12   18 ar
  25   14   15 ar
  26   14   28 1
  27   15   16 ar
  28   15   19 1
  29   16   17 ar
  30   16   29 1
  31   17   18 ar
  32   17   30 1
  33   18   31 1

#	End of record

