#	Name: ASD01350028
#	Creating user name:	WinNT
#	Creation time:	15. 06. 2019 19:16

#	Modifying user name:	WinNT
#	Modification time:	15. 06. 2019 19:16

#	Program:	/corina/corina34_cracker 3.40 0067  02.08.2006

@<TRIPOS>MOLECULE
ASD01350028
  64   68    0    0    0
SMALL
NO_CHARGES


@<TRIPOS>ATOM
   1 O1            -0.0518     1.4822     0.1219 O.3     
   2 C2            -0.0052     0.0581     0.0135 C.3     
   3 C3            -1.4179    -0.5110     0.1591 C.3     
   4 N4            -2.2444    -0.0648    -0.9704 N.3     
   5 C5            -1.9198    -0.8167    -2.1893 C.3     
   6 C6            -2.6917    -0.2296    -3.3732 C.3     
   7 C7            -4.1938    -0.3092    -3.0867 C.3     
   8 C8            -4.4979     0.4407    -1.7868 C.3     
   9 C9            -3.6737    -0.1658    -0.6490 C.3     
  10 C10           -4.9571     0.3219    -4.2226 C.ar    
  11 O11           -4.5822    -1.6776    -2.9508 O.3     
  12 C12           -6.2250    -0.1297    -4.5381 C.ar    
  13 C13           -6.9257     0.4486    -5.5797 C.ar    
  14 C14           -6.3578     1.4797    -6.3066 C.ar    
  15 C15           -5.0888     1.9313    -5.9904 C.ar    
  16 C16           -4.3915     1.3559    -4.9450 C.ar    
  17 Cl17          -7.2369     2.2063    -7.6154 Cl      
  18 C18            1.2328     2.1081     0.1127 C.3     
  19 C19            1.1004     3.4345    -0.5836 C.ar    
  20 C20            1.5844     4.6621    -0.2113 C.ar    
  21 S21            2.4588     5.0300     1.2666 S.3     
  22 C22            3.6485     3.7478     1.4440 C.ar    
  23 C23            3.1957     2.4680     1.5858 C.ar    
  24 C24            1.7414     2.1429     1.5175 C.3     
  25 C25            0.3723     3.3364    -1.7790 C.ar    
  26 C26            0.1524     4.4247    -2.5964 C.ar    
  27 C27            0.6705     5.6621    -2.2310 C.ar    
  28 C28            1.3727     5.7674    -1.0585 C.ar    
  29 C29            5.0075     4.0407     1.4428 C.ar    
  30 C30            5.9174     3.0132     1.6111 C.ar    
  31 C31            5.4650     1.7174     1.7842 C.ar    
  32 C32            4.1117     1.4385     1.7746 C.ar    
  33 S33           -0.7731     4.2496    -4.0855 S.3     
  34 C34           -0.7692     5.9301    -4.7684 C.3     
  35 H35            0.3997    -0.2192    -0.9598 H       
  36 H36            0.6320    -0.3455     0.8004 H       
  37 H37           -1.3719    -1.6000     0.1678 H       
  38 H38           -1.8572    -0.1585     1.0923 H       
  39 H39           -0.8495    -0.7486    -2.3839 H       
  40 H40           -2.1988    -1.8620    -2.0563 H       
  41 H41           -2.4030     0.8118    -3.5154 H       
  42 H42           -2.4626    -0.7978    -4.2747 H       
  43 H43           -4.2376     1.4926    -1.9041 H       
  44 H44           -5.5592     0.3515    -1.5550 H       
  45 H45           -3.9444    -1.2142    -0.5232 H       
  46 H46           -3.8772     0.3751     0.2752 H       
  47 H47           -5.5234    -1.8030    -2.7678 H       
  48 H48           -6.6681    -0.9349    -3.9707 H       
  49 H49           -7.9161     0.0955    -5.8263 H       
  50 H50           -4.6450     2.7361    -6.5576 H       
  51 H51           -3.4009     1.7083    -4.6981 H       
  52 H52            1.9061     1.4838    -0.4746 H       
  53 H53            1.1846     2.8952     2.0763 H       
  54 H54            1.5751     1.1689     1.9776 H       
  55 H55           -0.0288     2.3764    -2.0687 H       
  56 H56            0.5221     6.5266    -2.8610 H       
  57 H57            1.7768     6.7281    -0.7756 H       
  58 H58            5.3481     5.0572     1.3118 H       
  59 H59            6.9771     3.2214     1.6070 H       
  60 H60            6.1755     0.9169     1.9281 H       
  61 H61            3.7664     0.4247     1.9132 H       
  62 H62           -1.2406     6.6113    -4.0599 H       
  63 H63            0.2581     6.2468    -4.9484 H       
  64 H64           -1.3229     5.9421    -5.7072 H       
@<TRIPOS>BOND
   1    1    2 1
   2    1   18 1
   3    2    3 1
   4    2   35 1
   5    2   36 1
   6    3    4 1
   7    3   37 1
   8    3   38 1
   9    4    5 1
  10    4    9 1
  11    5    6 1
  12    5   39 1
  13    5   40 1
  14    6    7 1
  15    6   41 1
  16    6   42 1
  17    7    8 1
  18    7   10 1
  19    7   11 1
  20    8    9 1
  21    8   43 1
  22    8   44 1
  23    9   45 1
  24    9   46 1
  25   10   12 ar
  26   10   16 ar
  27   11   47 1
  28   12   13 ar
  29   12   48 1
  30   13   14 ar
  31   13   49 1
  32   14   15 ar
  33   14   17 1
  34   15   16 ar
  35   15   50 1
  36   16   51 1
  37   18   19 1
  38   18   24 1
  39   18   52 1
  40   19   20 ar
  41   19   25 ar
  42   20   21 1
  43   20   28 ar
  44   21   22 1
  45   22   23 ar
  46   22   29 ar
  47   23   24 1
  48   23   32 ar
  49   24   53 1
  50   24   54 1
  51   25   26 ar
  52   25   55 1
  53   26   27 ar
  54   26   33 1
  55   27   28 ar
  56   27   56 1
  57   28   57 1
  58   29   30 ar
  59   29   58 1
  60   30   31 ar
  61   30   59 1
  62   31   32 ar
  63   31   60 1
  64   32   61 1
  65   33   34 1
  66   34   62 1
  67   34   63 1
  68   34   64 1

#	End of record

