#	Name: ASD04590014
#	Creating user name:	WinNT
#	Creation time:	15. 06. 2019 20:50

#	Modifying user name:	WinNT
#	Modification time:	15. 06. 2019 20:50

#	Program:	/corina/corina34_cracker 3.40 0067  02.08.2006

@<TRIPOS>MOLECULE
ASD04590014
  25   26    0    0    0
SMALL
NO_CHARGES


@<TRIPOS>ATOM
   1 N1            -0.0769     1.2683    -0.0506 N.pl3   
   2 N2            -0.0362    -0.0147     0.0017 N.2     
   3 C3             1.1934    -0.4375    -0.2149 C.2     
   4 C4             1.9942     0.7106    -0.4227 C.2     
   5 C5             1.1520     1.7643    -0.3102 C.2     
   6 C6             1.6488    -1.8422    -0.2362 C.2     
   7 O7             2.8180    -2.0991    -0.4485 O.2     
   8 N8             0.7682    -2.8394    -0.0201 N.am    
   9 C9             1.1783    -4.1726    -0.1365 C.ar    
  10 C10            2.4577    -4.5432     0.2559 C.ar    
  11 C11            2.8604    -5.8592     0.1403 C.ar    
  12 C12            1.9894    -6.8088    -0.3670 C.ar    
  13 C13            0.7133    -6.4412    -0.7593 C.ar    
  14 C14            0.3043    -5.1275    -0.6391 C.ar    
  15 F15            2.3854    -8.0955    -0.4797 F       
  16 N16            3.4470     0.7508    -0.7032 N.pl3   
  17 O17            4.0074     1.8206    -0.8612 O.2     
  18 O18            4.0821    -0.2860    -0.7760 O.2     
  19 H19           -0.8762     1.8035     0.0742 H       
  20 H20            1.4139     2.8073    -0.4098 H       
  21 H21           -0.1498    -2.6332     0.2159 H       
  22 H22            3.1376    -3.8028     0.6509 H       
  23 H23            3.8554    -6.1479     0.4453 H       
  24 H24            0.0357    -7.1832    -1.1553 H       
  25 H25           -0.6928    -4.8422    -0.9403 H       
@<TRIPOS>BOND
   1    1    2 1
   2    1    5 1
   3    1   19 1
   4    2    3 2
   5    3    4 1
   6    3    6 1
   7    4    5 2
   8    4   16 1
   9    5   20 1
  10    6    7 2
  11    6    8 am
  12    8    9 1
  13    8   21 1
  14    9   10 ar
  15    9   14 ar
  16   10   11 ar
  17   10   22 1
  18   11   12 ar
  19   11   23 1
  20   12   13 ar
  21   12   15 1
  22   13   14 ar
  23   13   24 1
  24   14   25 1
  25   16   17 2
  26   16   18 2

#	End of record

