#	Name: ASD01816604
#	Creating user name:	WinNT
#	Creation time:	15. 06. 2019 19:35

#	Modifying user name:	WinNT
#	Modification time:	15. 06. 2019 19:35

#	Program:	/corina/corina34_cracker 3.40 0067  02.08.2006

@<TRIPOS>MOLECULE
ASD01816604
  42   46    0    0    0
SMALL
NO_CHARGES


@<TRIPOS>ATOM
   1 C1            -0.0167     1.3813     0.0096 C.ar    
   2 C2             0.0021    -0.0041     0.0020 C.ar    
   3 C3             1.1984    -0.6909    -0.0131 C.ar    
   4 C4             2.4015     0.0059    -0.0204 C.ar    
   5 C5             2.3790     1.4106    -0.0127 C.ar    
   6 C6             1.1663     2.0916     0.0022 C.ar    
   7 N7             3.6053    -0.6772    -0.0347 N.pl3   
   8 C8             4.7970    -0.0585    -0.0419 C.2     
   9 C9             4.9000     1.3103    -0.0359 C.2     
  10 C10            3.6670     2.1302    -0.0207 C.2     
  11 C11            5.9971     2.2730    -0.0409 C.2     
  12 N12            5.4245     3.4961    -0.0301 N.am    
  13 N13            4.0323     3.3799    -0.0180 N.2     
  14 O14            7.1913     2.0230    -0.0526 O.2     
  15 C15            6.1246     4.7052    -0.0303 C.ar    
  16 C16            6.4728     5.3303    -1.2275 C.ar    
  17 C17            6.4885     5.3216     1.1667 C.ar    
  18 C18            7.1799     6.5161     1.1230 C.ar    
  19 N19            7.4954     7.0734    -0.0308 N.ar    
  20 C20            7.1647     6.5244    -1.1843 C.ar    
  21 Cl21           6.0427     4.6167    -2.7505 Cl      
  22 C22            3.5779    -2.1419    -0.0418 C.3     
  23 C23            3.5557    -2.6370    -1.4650 C.ar    
  24 C24            4.7408    -2.9825    -2.0861 C.ar    
  25 C25            4.7100    -3.4370    -3.3957 C.ar    
  26 C26            3.4819    -3.5272    -4.0343 C.ar    
  27 C27            2.3374    -3.1633    -3.3480 C.ar    
  28 N28            2.4050    -2.7405    -2.1009 N.ar    
  29 Br29           3.3737    -4.1392    -5.8203 Br      
  30 Cl30           6.0776     4.5977     2.6901 Cl      
  31 H31           -0.9602     1.9068     0.0170 H       
  32 H32           -0.9288    -0.5516     0.0083 H       
  33 H33            1.2004    -1.7709    -0.0189 H       
  34 H34            1.1506     3.1715     0.0081 H       
  35 H35            5.6983    -0.6535    -0.0522 H       
  36 H36            7.4659     7.0006     2.0449 H       
  37 H37            7.4426     7.0132    -2.1064 H       
  38 H38            4.4655    -2.5243     0.4622 H       
  39 H39            2.6859    -2.4911     0.4783 H       
  40 H40            5.6793    -2.8992    -1.5582 H       
  41 H41            5.6204    -3.7138    -3.9065 H       
  42 H42            1.3772    -3.2301    -3.8377 H       
@<TRIPOS>BOND
   1    1    2 ar
   2    1    6 ar
   3    1   31 1
   4    2    3 ar
   5    2   32 1
   6    3    4 ar
   7    3   33 1
   8    4    5 ar
   9    4    7 1
  10    5    6 ar
  11    5   10 1
  12    6   34 1
  13    7    8 1
  14    7   22 1
  15    8    9 2
  16    8   35 1
  17    9   10 1
  18    9   11 1
  19   10   13 2
  20   11   12 am
  21   11   14 2
  22   12   13 1
  23   12   15 1
  24   15   16 ar
  25   15   17 ar
  26   16   21 1
  27   16   20 ar
  28   17   18 ar
  29   17   30 1
  30   18   19 ar
  31   18   36 1
  32   19   20 ar
  33   20   37 1
  34   22   23 1
  35   22   38 1
  36   22   39 1
  37   23   24 ar
  38   23   28 ar
  39   24   25 ar
  40   24   40 1
  41   25   26 ar
  42   25   41 1
  43   26   27 ar
  44   26   29 1
  45   27   28 ar
  46   27   42 1

#	End of record

