#	Name: ASD01816716
#	Creating user name:	WinNT
#	Creation time:	15. 06. 2019 19:35

#	Modifying user name:	WinNT
#	Modification time:	15. 06. 2019 19:35

#	Program:	/corina/corina34_cracker 3.40 0067  02.08.2006

@<TRIPOS>MOLECULE
ASD01816716
  61   65    0    0    0
SMALL
NO_CHARGES


@<TRIPOS>ATOM
   1 C1             0.0331     1.4483     0.9031 C.2     
   2 C2             0.0044     0.0799     0.6014 C.2     
   3 C3             1.1661    -0.5633     0.2889 C.2     
   4 C4             2.3721     0.1573     0.2749 C.2     
   5 N5             2.3709     1.4928     0.5740 N.am    
   6 C6             1.2034     2.1251     0.8845 C.2     
   7 C7             3.5674    -0.5009    -0.0456 C.2     
   8 C8             4.7444     0.1906    -0.0620 C.2     
   9 C9             4.7389     1.5629     0.2454 C.2     
  10 C10            3.5211     2.1963     0.5646 C.2     
  11 C11            3.5532    -1.9721    -0.3718 C.3     
  12 O12            3.5074     3.3860     0.8324 O.2     
  13 C13            5.9896     2.3281     0.2348 C.2     
  14 N14            7.1647     1.6960     0.0444 N.am    
  15 O15            5.9667     3.5341     0.3980 O.2     
  16 N16            3.4744    -2.1501    -1.8279 N.3     
  17 C17            3.6960    -3.5534    -2.1992 C.3     
  18 C18            3.7517    -3.6764    -3.7236 C.3     
  19 C19            2.4341    -3.1732    -4.3198 C.3     
  20 C20            2.2033    -1.7253    -3.8783 C.3     
  21 C21            2.1925    -1.6589    -2.3494 C.3     
  22 C22            2.5055    -3.2358    -5.8238 C.ar    
  23 N23            3.6741    -3.3891    -6.4149 N.ar    
  24 C24            1.3250    -4.0156    -3.8432 C.1     
  25 N25            0.4691    -4.6657    -3.4754 N.1     
  26 C26            3.7846    -3.4492    -7.7278 C.ar    
  27 C27            2.6683    -3.3521    -8.5363 C.ar    
  28 C28            1.4217    -3.1902    -7.9506 C.ar    
  29 C29            1.3444    -3.1375    -6.5675 C.ar    
  30 C30            8.3481     2.4366    -0.0681 C.ar    
  31 C31            9.5808     1.8171     0.1251 C.ar    
  32 C32           10.7481     2.5547     0.0126 C.ar    
  33 C33           10.6881     3.9024    -0.2902 C.ar    
  34 C34            9.4649     4.5181    -0.4816 C.ar    
  35 C35            8.2961     3.7880    -0.3777 C.ar    
  36 O36            9.6382     0.4917     0.4237 O.3     
  37 H37           -0.8835     1.9649     1.1470 H       
  38 H38           -0.9301    -0.4612     0.6165 H       
  39 H39            1.1588    -1.6176     0.0547 H       
  40 H40            1.2138     3.1792     1.1193 H       
  41 H41            5.6690    -0.3105    -0.3078 H       
  42 H42            4.4661    -2.4359     0.0020 H       
  43 H43            2.6887    -2.4403     0.0988 H       
  44 H44            7.1907     0.7281    -0.0147 H       
  45 H45            4.6382    -3.8976    -1.7725 H       
  46 H46            2.8790    -4.1642    -1.8152 H       
  47 H47            4.5771    -3.0768    -4.1072 H       
  48 H48            3.9006    -4.7204    -3.9993 H       
  49 H49            3.0044    -1.0950    -4.2643 H       
  50 H50            1.2459    -1.3754    -4.2645 H       
  51 H51            1.3825    -2.2785    -1.9646 H       
  52 H52            2.0426    -0.6271    -2.0318 H       
  53 H53            4.7590    -3.5754    -8.1761 H       
  54 H54            2.7653    -3.4013    -9.6108 H       
  55 H55            0.5319    -3.1110    -8.5575 H       
  56 H56            0.3901    -3.0126    -6.0775 H       
  57 H57           11.7051     2.0770     0.1618 H       
  58 H58           11.5992     4.4758    -0.3771 H       
  59 H59            9.4230     5.5712    -0.7172 H       
  60 H60            7.3421     4.2715    -0.5276 H       
  61 H61            9.6930    -0.0841    -0.3513 H       
@<TRIPOS>BOND
   1    1    2 1
   2    1    6 2
   3    1   37 1
   4    2    3 2
   5    2   38 1
   6    3    4 1
   7    3   39 1
   8    4    5 1
   9    4    7 2
  10    5    6 1
  11    5   10 am
  12    6   40 1
  13    7    8 1
  14    7   11 1
  15    8    9 2
  16    8   41 1
  17    9   10 1
  18    9   13 1
  19   10   12 2
  20   11   16 1
  21   11   42 1
  22   11   43 1
  23   13   15 2
  24   13   14 am
  25   14   30 1
  26   14   44 1
  27   16   17 1
  28   16   21 1
  29   17   18 1
  30   17   45 1
  31   17   46 1
  32   18   19 1
  33   18   47 1
  34   18   48 1
  35   19   20 1
  36   19   22 1
  37   19   24 1
  38   20   21 1
  39   20   49 1
  40   20   50 1
  41   21   51 1
  42   21   52 1
  43   22   23 ar
  44   22   29 ar
  45   23   26 ar
  46   24   25 3
  47   26   27 ar
  48   26   53 1
  49   27   28 ar
  50   27   54 1
  51   28   29 ar
  52   28   55 1
  53   29   56 1
  54   30   31 ar
  55   30   35 ar
  56   31   32 ar
  57   31   36 1
  58   32   33 ar
  59   32   57 1
  60   33   34 ar
  61   33   58 1
  62   34   35 ar
  63   34   59 1
  64   35   60 1
  65   36   61 1

#	End of record

