#	Name: ASD08170201
#	Creating user name:	WinNT
#	Creation time:	15. 06. 2019 21:17

#	Modifying user name:	WinNT
#	Modification time:	15. 06. 2019 21:17

#	Program:	/corina/corina34_cracker 3.40 0067  02.08.2006

@<TRIPOS>MOLECULE
ASD08170201
  79   80    0    0    0
SMALL
NO_CHARGES


@<TRIPOS>ATOM
   1 N1            -0.0150     1.2583     0.0090 N.2     
   2 N2             0.0021    -0.0041     0.0020 N.2     
   3 C3             1.1271     1.8769     0.0014 C.2     
   4 S4             2.3826     0.7116    -0.0169 S.3     
   5 C5             1.1681    -0.5677    -0.0121 C.2     
   6 C6             1.4387    -2.0502    -0.0227 C.3     
   7 C7             1.5165    -2.5442    -1.4687 C.3     
   8 C8             1.8986    -4.7206    -3.2516 C.3     
   9 C9             2.1699    -6.2152    -3.4347 C.3     
  10 C10            2.2167    -6.5408    -4.9053 C.2     
  11 N11            3.2694    -6.5184    -5.6596 N.2     
  12 S12            0.8491    -7.0282    -5.9071 S.3     
  13 C13            1.9000    -7.1354    -7.2557 C.2     
  14 N14            3.1017    -6.8250    -6.8728 N.2     
  15 N15            1.5289    -7.4992    -8.5457 N.am    
  16 C16            2.4537    -7.5464    -9.5250 C.2     
  17 O17            3.6096    -7.2716    -9.2812 O.2     
  18 C18            2.0516    -7.9407   -10.9228 C.3     
  19 N19            1.3017     3.2566     0.0067 N.am    
  20 C20            0.2284     4.0717     0.0214 C.2     
  21 O21           -0.8897     3.6019     0.0299 O.2     
  22 C22            0.4176     5.5667     0.0272 C.3     
  23 C23            1.1849     5.9885    -1.2275 C.3     
  24 S24            1.8422    -4.3286    -1.4814 S.3     
  25 N25           -0.8913     6.2246     0.0433 N.am    
  26 C26           -1.0135     7.4698     0.5442 C.2     
  27 O27           -2.2164     8.0744     0.5591 O.3     
  28 O28           -0.0380     8.0469     0.9823 O.2     
  29 C29           -2.2735     9.4153     1.1133 C.3     
  30 C30           -1.3587    10.3396     0.3072 C.3     
  31 C31           -3.7111     9.9345     1.0453 C.3     
  32 C32           -1.8107     9.3846     2.5713 C.3     
  33 N33            3.2285    -7.9156   -11.7949 N.am    
  34 C34            3.2597    -8.6770   -12.9066 C.2     
  35 O35            4.3413    -8.6540   -13.7080 O.3     
  36 O36            2.3118    -9.3842   -13.1855 O.2     
  37 C37            4.3055    -9.4994   -14.8880 C.3     
  38 C38            3.1282    -9.0883   -15.7744 C.3     
  39 C39            5.6116    -9.3408   -15.6689 C.3     
  40 C40            4.1390   -10.9600   -14.4640 C.3     
  41 C41            1.0056    -6.9561   -11.4494 C.3     
  42 H42            2.3843    -2.2506     0.4811 H       
  43 H43            0.6334    -2.5702     0.4961 H       
  44 H44            0.5709    -2.3438    -1.9724 H       
  45 H45            2.3218    -2.0242    -1.9874 H       
  46 H46            2.6943    -4.1461    -3.7258 H       
  47 H47            0.9434    -4.4658    -3.7108 H       
  48 H48            3.1250    -6.4700    -2.9755 H       
  49 H49            1.3741    -6.7896    -2.9605 H       
  50 H50            0.6045    -7.7190    -8.7407 H       
  51 H51            1.6303    -8.9459   -10.9098 H       
  52 H52            2.1959     3.6323    -0.0001 H       
  53 H53            0.9817     5.8582     0.9132 H       
  54 H54            1.3218     7.0699    -1.2234 H       
  55 H55            2.1588     5.4991    -1.2396 H       
  56 H56            0.6208     5.6971    -2.1135 H       
  57 H57           -1.6700     5.7639    -0.3064 H       
  58 H58           -1.6884    10.3614    -0.7315 H       
  59 H59           -1.4016    11.3462     0.7232 H       
  60 H60           -0.3346     9.9697     0.3556 H       
  61 H61           -4.3628     9.2759     1.6195 H       
  62 H62           -3.7539    10.9410     1.4613 H       
  63 H63           -4.0408     9.9563     0.0066 H       
  64 H64           -0.7865     9.0147     2.6197 H       
  65 H65           -1.8536    10.3912     2.9873 H       
  66 H66           -2.4624     8.7261     3.1455 H       
  67 H67            3.9852    -7.3511   -11.5722 H       
  68 H68            3.2468    -8.0477   -16.0765 H       
  69 H69            3.1013    -9.7229   -16.6602 H       
  70 H70            2.1977    -9.2013   -15.2181 H       
  71 H71            6.4504    -9.6337   -15.0374 H       
  72 H72            5.5847    -9.9754   -16.5547 H       
  73 H73            5.7302    -8.3002   -15.9709 H       
  74 H74            3.2085   -11.0731   -13.9077 H       
  75 H75            4.1121   -11.5947   -15.3498 H       
  76 H76            4.9777   -11.2530   -13.8325 H       
  77 H77            0.7147    -7.2412   -12.4604 H       
  78 H78            0.1300    -6.9747   -10.8005 H       
  79 H79            1.4269    -5.9508   -11.4624 H       
@<TRIPOS>BOND
   1    1    2 1
   2    1    3 2
   3    2    5 2
   4    3    4 1
   5    3   19 1
   6    4    5 1
   7    5    6 1
   8    6    7 1
   9    6   42 1
  10    6   43 1
  11    7   24 1
  12    7   44 1
  13    7   45 1
  14    8    9 1
  15    8   24 1
  16    8   46 1
  17    8   47 1
  18    9   10 1
  19    9   48 1
  20    9   49 1
  21   10   11 2
  22   10   12 1
  23   11   14 1
  24   12   13 1
  25   13   14 2
  26   13   15 1
  27   15   16 am
  28   15   50 1
  29   16   17 2
  30   16   18 1
  31   18   33 1
  32   18   41 1
  33   18   51 1
  34   19   20 am
  35   19   52 1
  36   20   21 2
  37   20   22 1
  38   22   23 1
  39   22   25 1
  40   22   53 1
  41   23   54 1
  42   23   55 1
  43   23   56 1
  44   25   26 am
  45   25   57 1
  46   26   27 1
  47   26   28 2
  48   27   29 1
  49   29   30 1
  50   29   31 1
  51   29   32 1
  52   30   58 1
  53   30   59 1
  54   30   60 1
  55   31   61 1
  56   31   62 1
  57   31   63 1
  58   32   64 1
  59   32   65 1
  60   32   66 1
  61   33   34 am
  62   33   67 1
  63   34   35 1
  64   34   36 2
  65   35   37 1
  66   37   38 1
  67   37   39 1
  68   37   40 1
  69   38   68 1
  70   38   69 1
  71   38   70 1
  72   39   71 1
  73   39   72 1
  74   39   73 1
  75   40   74 1
  76   40   75 1
  77   40   76 1
  78   41   77 1
  79   41   78 1
  80   41   79 1

#	End of record

