#	Name: ASD01840181
#	Creating user name:	WinNT
#	Creation time:	15. 06. 2019 19:37

#	Modifying user name:	WinNT
#	Modification time:	15. 06. 2019 19:37

#	Program:	/corina/corina34_cracker 3.40 0067  02.08.2006

@<TRIPOS>MOLECULE
ASD01840181
  43   46    0    0    0
SMALL
NO_CHARGES


@<TRIPOS>ATOM
   1 C1            -1.7653     1.3847    -0.0646 C.3     
   2 C2            -1.8672    -0.1510    -0.0380 C.3     
   3 N3            -1.3139    -0.7994    -1.2295 N.am    
   4 C4            -1.7528    -2.0192    -1.5981 C.2     
   5 C5            -1.2006    -2.6663    -2.7873 C.2     
   6 O6            -2.6092    -2.5822    -0.9409 O.2     
   7 C7            -1.5752    -3.8887    -3.2394 C.2     
   8 C8            -0.8802    -4.3132    -4.4405 C.ar    
   9 C9             0.0437    -3.3586    -4.8864 C.ar    
  10 S10            0.0273    -1.9609    -3.8202 S.3     
  11 C11           -1.0006    -5.5046    -5.1917 C.ar    
  12 C12           -0.2061    -5.6496    -6.3077 C.ar    
  13 N13            0.6388    -4.6928    -6.6519 N.ar    
  14 N14            0.7610    -3.6065    -5.9848 N.ar    
  15 C15           -0.3000    -6.9033    -7.1387 C.3     
  16 C16           -1.9691    -6.5845    -4.7834 C.3     
  17 N17           -2.5382    -4.6652    -2.6091 N.pl3   
  18 C18           -0.8884    -0.0969     1.1489 C.3     
  19 N19           -0.4582     1.2108     0.6067 N.3     
  20 C20           -0.2932     2.1437     1.6265 C.ar    
  21 C21            0.8591     2.9250     1.7007 C.ar    
  22 C22           -1.2787     2.3243     2.5961 C.ar    
  23 C23           -1.0777     3.2602     3.5923 C.ar    
  24 N24            0.0314     3.9788     3.6327 N.ar    
  25 C25            0.9857     3.8400     2.7281 C.ar    
  26 F26            2.0982     4.6021     2.8095 F       
  27 F27           -2.0263     3.4437     4.5366 F       
  28 H28           -1.6911     1.8026    -1.0686 H       
  29 H29           -2.5123     1.8851     0.5516 H       
  30 H30           -2.8583    -0.5204     0.2251 H       
  31 H31           -0.6316    -0.3508    -1.7531 H       
  32 H32           -1.0527    -6.7687    -7.9155 H       
  33 H33            0.6663    -7.1064    -7.6003 H       
  34 H34           -0.5815    -7.7414    -6.5012 H       
  35 H35           -2.9584    -6.3538    -5.1786 H       
  36 H36           -1.6336    -7.5426    -5.1805 H       
  37 H37           -2.0159    -6.6383    -3.6957 H       
  38 H38           -2.7670    -4.4959    -1.6817 H       
  39 H39           -2.9822    -5.3770    -3.0959 H       
  40 H40           -1.3789    -0.0299     2.1200 H       
  41 H41           -0.1136    -0.8629     1.1145 H       
  42 H42            1.6424     2.8162     0.9652 H       
  43 H43           -2.1870     1.7408     2.5685 H       
@<TRIPOS>BOND
   1    1    2 1
   2    1   19 1
   3    1   28 1
   4    1   29 1
   5    2    3 1
   6    2   18 1
   7    2   30 1
   8    3    4 am
   9    3   31 1
  10    4    5 1
  11    4    6 2
  12    5    7 2
  13    5   10 1
  14    7    8 1
  15    7   17 1
  16    8    9 ar
  17    8   11 ar
  18    9   10 1
  19    9   14 ar
  20   11   12 ar
  21   11   16 1
  22   12   13 ar
  23   12   15 1
  24   13   14 ar
  25   15   32 1
  26   15   33 1
  27   15   34 1
  28   16   35 1
  29   16   36 1
  30   16   37 1
  31   17   38 1
  32   17   39 1
  33   18   19 1
  34   18   40 1
  35   18   41 1
  36   19   20 1
  37   20   22 ar
  38   20   21 ar
  39   21   25 ar
  40   21   42 1
  41   22   23 ar
  42   22   43 1
  43   23   24 ar
  44   23   27 1
  45   24   25 ar
  46   25   26 1

#	End of record

