#	Name: ASD04840081
#	Creating user name:	WinNT
#	Creation time:	15. 06. 2019 20:52

#	Modifying user name:	WinNT
#	Modification time:	15. 06. 2019 20:52

#	Program:	/corina/corina34_cracker 3.40 0067  02.08.2006

@<TRIPOS>MOLECULE
ASD04840081
  45   48    0    0    0
SMALL
NO_CHARGES


@<TRIPOS>ATOM
   1 C1            -0.0171     1.4123     0.0098 C.ar    
   2 C2            -1.2616     2.0881     0.0193 C.ar    
   3 C3            -2.4539     1.3438     0.0204 C.ar    
   4 C4            -2.4094    -0.0182     0.0124 C.ar    
   5 C5            -1.1977    -0.6980     0.0030 C.ar    
   6 C6             0.0021    -0.0041     0.0020 C.ar    
   7 C7             1.2869    -0.7336    -0.0141 C.ar    
   8 C8             2.2060    -0.6428     1.1201 C.ar    
   9 C9             3.4312    -1.3593     1.0668 C.ar    
  10 C10            3.7350    -2.1357    -0.0640 C.ar    
  11 C11            2.8480    -2.2052    -1.1238 C.ar    
  12 C12            1.6361    -1.5185    -1.1017 C.ar    
  13 N13            1.9096     0.0931     2.1854 N.ar    
  14 C14            2.7363     0.1777     3.2122 C.ar    
  15 C15            3.9626    -0.5044     3.2232 C.ar    
  16 C16            4.3198    -1.2759     2.1553 C.ar    
  17 C17            2.3611     1.0108     4.3768 C.2     
  18 O18            3.1112     1.0981     5.3278 O.2     
  19 O19            1.1877     1.6723     4.3816 O.3     
  20 C20           -1.2812     3.4937     0.0270 C.ar    
  21 C21           -0.1077     4.1837     0.0252 C.ar    
  22 C22            1.1155     3.5170     0.0154 C.ar    
  23 C23            1.1712     2.1558     0.0025 C.ar    
  24 N24            3.1731    -2.9844    -2.2388 N.pl3   
  25 O25            4.9069    -2.8219    -0.1175 O.3     
  26 C26            4.9019    -4.1554     0.3960 C.3     
  27 C27            6.2987    -4.7629     0.2514 C.3     
  28 H28           -3.4068     1.8521     0.0280 H       
  29 H29           -3.3323    -0.5791     0.0137 H       
  30 H30           -1.1906    -1.7779    -0.0029 H       
  31 H31            0.9628    -1.5960    -1.9426 H       
  32 H32            4.6220    -0.4192     4.0743 H       
  33 H33            5.2592    -1.8087     2.1460 H       
  34 H34            0.9865     2.2035     5.1641 H       
  35 H35           -2.2223     4.0235     0.0340 H       
  36 H36           -0.1252     5.2635     0.0312 H       
  37 H37            2.0326     4.0874     0.0135 H       
  38 H38            2.1264     1.6519    -0.0086 H       
  39 H39            4.0131    -3.4690    -2.2635 H       
  40 H40            2.5587    -3.0403    -2.9873 H       
  41 H41            4.6203    -4.1383     1.4488 H       
  42 H42            4.1845    -4.7570    -0.1623 H       
  43 H43            7.0160    -4.1613     0.8096 H       
  44 H44            6.2948    -5.7801     0.6430 H       
  45 H45            6.5802    -4.7800    -0.8015 H       
@<TRIPOS>BOND
   1    1    6 ar
   2    1   23 ar
   3    1    2 ar
   4    2    3 ar
   5    2   20 ar
   6    3    4 ar
   7    3   28 1
   8    4    5 ar
   9    4   29 1
  10    5    6 ar
  11    5   30 1
  12    6    7 1
  13    7    8 ar
  14    7   12 ar
  15    8   13 ar
  16    8    9 ar
  17    9   10 ar
  18    9   16 ar
  19   10   11 ar
  20   10   25 1
  21   11   12 ar
  22   11   24 1
  23   12   31 1
  24   13   14 ar
  25   14   15 ar
  26   14   17 1
  27   15   16 ar
  28   15   32 1
  29   16   33 1
  30   17   18 2
  31   17   19 1
  32   19   34 1
  33   20   21 ar
  34   20   35 1
  35   21   22 ar
  36   21   36 1
  37   22   23 ar
  38   22   37 1
  39   23   38 1
  40   24   39 1
  41   24   40 1
  42   25   26 1
  43   26   27 1
  44   26   41 1
  45   26   42 1
  46   27   43 1
  47   27   44 1
  48   27   45 1

#	End of record

