#	Name: ASD01811755
#	Creating user name:	WinNT
#	Creation time:	15. 06. 2019 19:27

#	Modifying user name:	WinNT
#	Modification time:	15. 06. 2019 19:27

#	Program:	/corina/corina34_cracker 3.40 0067  02.08.2006

@<TRIPOS>MOLECULE
ASD01811755
  59   62    0    0    0
SMALL
NO_CHARGES


@<TRIPOS>ATOM
   1 C1            -0.0630     1.2572    -0.4732 C.2     
   2 N2             0.0098    -0.0356    -0.1036 N.am    
   3 C3             1.2044    -0.6630     0.0119 C.2     
   4 C4             2.3687    -0.0119    -0.2400 C.2     
   5 C5             2.3521     1.3283    -0.6258 C.2     
   6 C6             1.1267     1.9801    -0.7476 C.2     
   7 C7            -1.2230    -0.7751     0.1785 C.3     
   8 C8             1.2420    -2.1109     0.4282 C.3     
   9 O9            -1.1478     1.8033    -0.5765 O.2     
  10 C10            1.0674     3.3927    -1.1531 C.2     
  11 N11           -0.1244     3.9775    -1.3859 N.am    
  12 O12            2.0940     4.0332    -1.2783 O.2     
  13 C13           -0.1798     5.3500    -1.8952 C.3     
  14 C14            3.6818    -0.7384    -0.1018 C.3     
  15 C15            4.2650    -0.4672     1.2610 C.ar    
  16 C16            5.0022     0.6821     1.4798 C.ar    
  17 C17            4.0571    -1.3653     2.2917 C.ar    
  18 C18            4.5900    -1.1193     3.5420 C.ar    
  19 C19            5.3350     0.0312     3.7633 C.ar    
  20 C20            5.5380     0.9334     2.7278 C.ar    
  21 C21           -1.5709     7.4209    -2.0312 C.3     
  22 C22           -1.5131     5.9875    -1.4993 C.3     
  23 C23           -0.0552     5.3336    -3.4201 C.3     
  24 C24           -0.1130     6.7670    -3.9520 C.3     
  25 C25           -1.4464     7.4045    -3.5561 C.3     
  26 O26           -1.6294     6.0029    -0.0751 O.3     
  27 N27            5.8772     0.2837     5.0312 N.pl3   
  28 C28            6.6181     1.3598     5.3800 C.2     
  29 C29            6.9462     1.2279     6.6862 C.2     
  30 C30            6.3880     0.0324     7.1519 C.2     
  31 N31            5.7423    -0.5311     6.1627 N.2     
  32 H32            3.2746     1.8526    -0.8271 H       
  33 H33           -2.0812    -0.1184     0.0363 H       
  34 H34           -1.2998    -1.6253    -0.4992 H       
  35 H35           -1.2051    -1.1318     1.2083 H       
  36 H36            0.2332    -2.4460     0.6691 H       
  37 H37            1.6398    -2.7135    -0.3883 H       
  38 H38            1.8803    -2.2204     1.3050 H       
  39 H39           -0.9454     3.4897    -1.2163 H       
  40 H40            0.6402     5.9288    -1.4699 H       
  41 H41            3.5186    -1.8096    -0.2206 H       
  42 H42            4.3729    -0.3890    -0.8689 H       
  43 H43            5.1594     1.3837     0.6739 H       
  44 H44            3.4772    -2.2599     2.1190 H       
  45 H45            4.4270    -1.8209     4.3467 H       
  46 H46            6.1143     1.8308     2.8978 H       
  47 H47           -2.5208     7.8751    -1.7492 H       
  48 H48           -0.7510     7.9997    -1.6059 H       
  49 H49           -2.3330     5.4088    -1.9246 H       
  50 H50            0.8947     4.8794    -3.7021 H       
  51 H51           -0.8751     4.7549    -3.8454 H       
  52 H52            0.7069     7.3457    -3.5267 H       
  53 H53           -0.0243     6.7553    -5.0383 H       
  54 H54           -2.2663     6.8257    -3.9814 H       
  55 H55           -1.4876     8.4257    -3.9350 H       
  56 H56           -2.4526     6.3942     0.2480 H       
  57 H57            6.8978     2.1776     4.7324 H       
  58 H58            7.5354     1.9225     7.2665 H       
  59 H59            6.4718    -0.3563     8.1561 H       
@<TRIPOS>BOND
   1    1    2 am
   2    1    6 1
   3    1    9 2
   4    2    3 1
   5    2    7 1
   6    3    4 2
   7    3    8 1
   8    4    5 1
   9    4   14 1
  10    5    6 2
  11    5   32 1
  12    6   10 1
  13    7   33 1
  14    7   34 1
  15    7   35 1
  16    8   36 1
  17    8   37 1
  18    8   38 1
  19   10   11 am
  20   10   12 2
  21   11   13 1
  22   11   39 1
  23   13   23 1
  24   13   22 1
  25   13   40 1
  26   14   15 1
  27   14   41 1
  28   14   42 1
  29   15   17 ar
  30   15   16 ar
  31   16   20 ar
  32   16   43 1
  33   17   18 ar
  34   17   44 1
  35   18   19 ar
  36   18   45 1
  37   19   20 ar
  38   19   27 1
  39   20   46 1
  40   21   22 1
  41   21   25 1
  42   21   47 1
  43   21   48 1
  44   22   26 1
  45   22   49 1
  46   23   24 1
  47   23   50 1
  48   23   51 1
  49   24   25 1
  50   24   52 1
  51   24   53 1
  52   25   54 1
  53   25   55 1
  54   26   56 1
  55   27   28 1
  56   27   31 1
  57   28   29 2
  58   28   57 1
  59   29   30 1
  60   29   58 1
  61   30   31 2
  62   30   59 1

#	End of record

