#	Name: ASD04660016
#	Creating user name:	WinNT
#	Creation time:	15. 06. 2019 20:52

#	Modifying user name:	WinNT
#	Modification time:	15. 06. 2019 20:52

#	Program:	/corina/corina34_cracker 3.40 0067  02.08.2006

@<TRIPOS>MOLECULE
ASD04660016
  43   46    0    0    0
SMALL
NO_CHARGES


@<TRIPOS>ATOM
   1 C1             6.3748     1.5108     2.8838 C.ar    
   2 C2             6.4385     0.1203     2.8069 C.ar    
   3 C3             5.6563    -0.6195     1.9602 C.ar    
   4 C4             4.7424     0.0444     1.1247 C.ar    
   5 C5             4.6908     1.4358     1.2144 C.ar    
   6 C6             5.4872     2.2023     2.0777 C.ar    
   7 C7             3.8748    -0.5687     0.2051 C.ar    
   8 C8             3.0432     0.2248    -0.5368 C.ar    
   9 C9             3.0129     1.6149    -0.4266 C.ar    
  10 C10            3.8505     2.2556     0.4670 C.ar    
  11 N11            4.1112     3.5631     0.8572 N.am    
  12 C12            5.0771     3.5865     1.8133 C.2     
  13 C13            0.2221    -3.4186     3.5153 C.ar    
  14 F14            1.7015    -4.9970     2.5388 F       
  15 C15            0.0113    -2.9784     4.8086 C.ar    
  16 C16           -1.2738    -2.7297     5.2532 C.ar    
  17 C17           -2.3480    -2.9209     4.4044 C.ar    
  18 C18           -2.1371    -3.3602     3.1108 C.ar    
  19 C19           -0.8517    -3.6047     2.6648 C.ar    
  20 O20            5.5236     4.5806     2.3547 O.2     
  21 N21           -3.7241    -2.6556     4.8809 N.pl3   
  22 O22           -3.9099    -2.2689     6.0208 O.2     
  23 O23           -4.6705    -2.8240     4.1330 O.2     
  24 S24            3.8587    -2.3200     0.0115 S.o2    
  25 O25            2.8510    -2.6083    -0.9481 O.2     
  26 O26            5.2138    -2.7194    -0.1407 O.2     
  27 N27            3.3386    -2.9669     1.4444 N.am    
  28 C28            1.9767    -2.7033     1.9157 C.3     
  29 C29            1.6230    -3.6896     3.0305 C.3     
  30 H30            7.0120     2.0457     3.5724 H       
  31 H31            7.1384    -0.3984     3.4453 H       
  32 H32            5.7409    -1.6959     1.9350 H       
  33 H33            2.3773    -0.2486    -1.2432 H       
  34 H34            2.3352     2.1907    -1.0396 H       
  35 H35            3.6678     4.3475     0.4980 H       
  36 H36            0.8505    -2.8290     5.4717 H       
  37 H37           -1.4386    -2.3865     6.2639 H       
  38 H38           -2.9764    -3.5099     2.4478 H       
  39 H39           -0.6869    -3.9479     1.6542 H       
  40 H40            3.9357    -3.5203     1.9718 H       
  41 H41            1.9155    -1.6847     2.2988 H       
  42 H42            1.2766    -2.8232     1.0889 H       
  43 H43            2.3231    -3.5698     3.8573 H       
@<TRIPOS>BOND
   1    1    2 ar
   2    1    6 ar
   3    1   30 1
   4    2    3 ar
   5    2   31 1
   6    3    4 ar
   7    3   32 1
   8    4    5 ar
   9    4    7 ar
  10    5    6 ar
  11    5   10 ar
  12    6   12 1
  13    7    8 ar
  14    7   24 1
  15    8    9 ar
  16    8   33 1
  17    9   10 ar
  18    9   34 1
  19   10   11 1
  20   11   12 am
  21   11   35 1
  22   12   20 2
  23   13   15 ar
  24   13   29 1
  25   13   19 ar
  26   14   29 1
  27   15   16 ar
  28   15   36 1
  29   16   17 ar
  30   16   37 1
  31   17   18 ar
  32   17   21 1
  33   18   19 ar
  34   18   38 1
  35   19   39 1
  36   21   22 2
  37   21   23 2
  38   24   25 2
  39   24   26 2
  40   24   27 am
  41   27   28 1
  42   27   40 1
  43   28   29 1
  44   28   41 1
  45   28   42 1
  46   29   43 1

#	End of record

