#	Name: ASD01915870
#	Creating user name:	WinNT
#	Creation time:	15. 06. 2019 20:06

#	Modifying user name:	WinNT
#	Modification time:	15. 06. 2019 20:06

#	Program:	/corina/corina34_cracker 3.40 0067  02.08.2006

@<TRIPOS>MOLECULE
ASD01915870
  42   46    0    0    0
SMALL
NO_CHARGES


@<TRIPOS>ATOM
   1 C1            -0.0042     1.4694     0.2370 C.2     
   2 N2             0.0668     0.1205    -0.0303 N.pl3   
   3 C3            -1.1417    -0.6622    -0.3156 C.3     
   4 C4            -2.3277    -0.0489     0.4270 C.3     
   5 N5            -2.4044     1.3988     0.2637 N.am    
   6 C6            -1.2937     2.1745     0.2886 C.2     
   7 C7             1.2760     1.9067     0.4299 C.2     
   8 C8             2.0760     0.7664     0.2763 C.2     
   9 N9             1.2872    -0.2487     0.0110 N.2     
  10 C10            3.5775     0.7147     0.3949 C.3     
  11 O11            4.0771     2.0201     0.6920 O.3     
  12 C12            5.4227     2.1486     0.8323 C.ar    
  13 O13           -1.3597     3.3876     0.3505 O.2     
  14 C14            5.9761     3.3875     1.1210 C.ar    
  15 C15            6.2448     1.0398     0.6926 C.ar    
  16 C16            7.6124     1.1730     0.8357 C.ar    
  17 C17            8.1619     2.4100     1.1178 C.ar    
  18 C18            7.3442     3.5155     1.2631 C.ar    
  19 C19           -3.6532     1.9997     0.0766 C.ar    
  20 C20           -4.5550     1.9932     1.0964 C.ar    
  21 C21           -3.9473     2.6007    -1.1544 C.ar    
  22 C22           -5.1413     3.1955    -1.3841 C.ar    
  23 C23           -6.1286     3.2205    -0.3662 C.ar    
  24 C24           -5.8235     2.5990     0.9201 C.ar    
  25 N25           -7.3487     3.7330    -0.3546 N.2     
  26 S26           -8.0053     3.4749     1.0315 S.3     
  27 N27           -6.8517     2.7144     1.7456 N.2     
  28 H28           -1.3382    -0.6505    -1.3876 H       
  29 H29           -0.9965    -1.6901     0.0169 H       
  30 H30           -3.2480    -0.4951     0.0502 H       
  31 H31           -2.2359    -0.2792     1.4884 H       
  32 H32            1.6007     2.9125     0.6520 H       
  33 H33            3.8553     0.0285     1.1949 H       
  34 H34            4.0045     0.3677    -0.5460 H       
  35 H35            5.3378     4.2514     1.2343 H       
  36 H36            5.8160     0.0733     0.4726 H       
  37 H37            8.2528     0.3102     0.7274 H       
  38 H38            9.2313     2.5121     1.2293 H       
  39 H39            7.7759     4.4807     1.4832 H       
  40 H40           -4.3041     1.5269     2.0377 H       
  41 H41           -3.2040     2.5894    -1.9379 H       
  42 H42           -5.3420     3.6514    -2.3424 H       
@<TRIPOS>BOND
   1    1    2 1
   2    1    7 2
   3    1    6 1
   4    2    3 1
   5    2    9 1
   6    3    4 1
   7    3   28 1
   8    3   29 1
   9    4    5 1
  10    4   30 1
  11    4   31 1
  12    5    6 am
  13    5   19 1
  14    6   13 2
  15    7    8 1
  16    7   32 1
  17    8    9 2
  18    8   10 1
  19   10   11 1
  20   10   33 1
  21   10   34 1
  22   11   12 1
  23   12   14 ar
  24   12   15 ar
  25   14   18 ar
  26   14   35 1
  27   15   16 ar
  28   15   36 1
  29   16   17 ar
  30   16   37 1
  31   17   18 ar
  32   17   38 1
  33   18   39 1
  34   19   20 ar
  35   19   21 ar
  36   20   24 ar
  37   20   40 1
  38   21   22 ar
  39   21   41 1
  40   22   23 ar
  41   22   42 1
  42   23   24 ar
  43   23   25 2
  44   24   27 2
  45   25   26 1
  46   26   27 1

#	End of record

