#	Name: ASD01870131
#	Creating user name:	WinNT
#	Creation time:	15. 06. 2019 19:38

#	Modifying user name:	WinNT
#	Modification time:	15. 06. 2019 19:38

#	Program:	/corina/corina34_cracker 3.40 0067  02.08.2006

@<TRIPOS>MOLECULE
ASD01870131
  42   44    0    0    0
SMALL
NO_CHARGES


@<TRIPOS>ATOM
   1 C1             1.6482     1.5338     1.3888 C.3     
   2 C2             1.6906     0.0274     1.3812 C.2     
   3 N3             0.6044    -0.6754     1.0035 N.am    
   4 O4             2.7023    -0.5525     1.7148 O.2     
   5 C5             0.6733    -2.0703     0.9027 C.ar    
   6 C6             1.4498    -2.7936     1.7984 C.ar    
   7 C7            -0.0394    -2.7306    -0.0895 C.ar    
   8 C8             0.0284    -4.1070    -0.1892 C.ar    
   9 C9             0.8096    -4.8302     0.7032 C.ar    
  10 C10            1.5179    -4.1699     1.6991 C.ar    
  11 Cl11           2.4942    -5.0735     2.8145 Cl      
  12 N12            0.8783    -6.2288     0.6023 N.am    
  13 C13            1.7944    -6.8571    -0.1449 C.2     
  14 C14            0.0367    -7.0441     1.2499 C.2     
  15 C15            0.3850    -8.4800     0.9238 C.3     
  16 C16            1.5890    -8.3520    -0.0315 C.3     
  17 O17           -0.8618    -6.6883     1.9819 O.2     
  18 O18            2.6523    -6.3145    -0.8076 O.2     
  19 C19            1.7595    -9.0119     1.3349 C.3     
  20 C20            2.5262    -8.2313     2.4042 C.3     
  21 C21            1.9470   -10.5300     1.3663 C.3     
  22 C22            0.5508     2.0083     2.3435 C.3     
  23 C23            2.9998     2.0797     1.8539 C.3     
  24 Cl24          -0.8630    -4.9325    -1.4292 Cl      
  25 H25            1.4365     1.8965     0.3830 H       
  26 H26           -0.2251    -0.2149     0.8016 H       
  27 H27            2.0007    -2.2802     2.5725 H       
  28 H28           -0.6470    -2.1683    -0.7831 H       
  29 H29           -0.4362    -9.1724     0.7388 H       
  30 H30            1.6769    -8.9471    -0.9405 H       
  31 H31            2.0166    -7.2880     2.6009 H       
  32 H32            2.5701    -8.8186     3.3214 H       
  33 H33            3.5382    -8.0309     2.0523 H       
  34 H34            2.8412   -10.7974     0.8032 H       
  35 H35            2.0554   -10.8614     2.3990 H       
  36 H36            1.0781   -11.0128     0.9191 H       
  37 H37            0.7625     1.6456     3.3494 H       
  38 H38            0.5201     3.0978     2.3490 H       
  39 H39           -0.4121     1.6194     2.0122 H       
  40 H40            3.7816     1.7417     1.1737 H       
  41 H41            2.9691     3.1693     1.8594 H       
  42 H42            3.2115     1.7171     2.8597 H       
@<TRIPOS>BOND
   1    1    2 1
   2    1   22 1
   3    1   23 1
   4    1   25 1
   5    2    3 am
   6    2    4 2
   7    3    5 1
   8    3   26 1
   9    5    6 ar
  10    5    7 ar
  11    6   10 ar
  12    6   27 1
  13    7    8 ar
  14    7   28 1
  15    8    9 ar
  16    8   24 1
  17    9   10 ar
  18    9   12 1
  19   10   11 1
  20   12   13 am
  21   12   14 am
  22   13   18 2
  23   13   16 1
  24   14   17 2
  25   14   15 1
  26   15   16 1
  27   15   19 1
  28   15   29 1
  29   16   19 1
  30   16   30 1
  31   19   20 1
  32   19   21 1
  33   20   31 1
  34   20   32 1
  35   20   33 1
  36   21   34 1
  37   21   35 1
  38   21   36 1
  39   22   37 1
  40   22   38 1
  41   22   39 1
  42   23   40 1
  43   23   41 1
  44   23   42 1

#	End of record

