#	Name: ASD03430640
#	Creating user name:	WinNT
#	Creation time:	15. 06. 2019 20:41

#	Modifying user name:	WinNT
#	Modification time:	15. 06. 2019 20:41

#	Program:	/corina/corina34_cracker 3.40 0067  02.08.2006

@<TRIPOS>MOLECULE
ASD03430640
  18   18    0    0    0
SMALL
NO_CHARGES


@<TRIPOS>ATOM
   1 C1            -0.0167     1.3774     0.0096 C.ar    
   2 C2             0.0021    -0.0041     0.0020 C.ar    
   3 C3             1.2219    -0.6636    -0.0132 C.ar    
   4 C4             2.3825     0.0946    -0.0203 C.ar    
   5 C5             2.2866     1.4733    -0.0120 C.ar    
   6 N6             1.1084     2.0677     0.0026 N.ar    
   7 O7             1.0496     3.4825     0.0103 O.3     
   8 C8            -1.3367     2.1044     0.0198 C.3     
   9 C9            -1.2871    -0.7845     0.0107 C.3     
  10 F10           -1.0879    -2.0067     0.6617 F       
  11 F11           -2.2709    -0.0524     0.6840 F       
  12 H12            1.2667    -1.7426    -0.0191 H       
  13 H13            3.3495    -0.3861    -0.0318 H       
  14 H14            3.1861     2.0710    -0.0170 H       
  15 H15           -1.6501     2.2741     1.0499 H       
  16 H16           -1.2280     3.0620    -0.4893 H       
  17 H17           -2.0867     1.5029    -0.4938 H       
  18 H18           -1.6081    -0.9672    -1.0148 H       
@<TRIPOS>BOND
   1    1    2 ar
   2    1    6 ar
   3    1    8 1
   4    2    3 ar
   5    2    9 1
   6    3    4 ar
   7    3   12 1
   8    4    5 ar
   9    4   13 1
  10    5    6 ar
  11    5   14 1
  12    6    7 1
  13    8   15 1
  14    8   16 1
  15    8   17 1
  16    9   10 1
  17    9   11 1
  18    9   18 1

#	End of record

