#	Name: ASD03090781
#	Creating user name:	WinNT
#	Creation time:	15. 06. 2019 20:29

#	Modifying user name:	WinNT
#	Modification time:	15. 06. 2019 20:29

#	Program:	/corina/corina34_cracker 3.40 0067  02.08.2006

@<TRIPOS>MOLECULE
ASD03090781
  43   45    0    0    0
SMALL
NO_CHARGES


@<TRIPOS>ATOM
   1 C1            -0.0173     1.4248     0.0099 C.3     
   2 O2             0.0021    -0.0041     0.0020 O.3     
   3 C3             0.6262    -0.6188     1.0422 C.ar    
   4 C4             1.2069     0.1366     2.0477 C.ar    
   5 C5             1.8413    -0.4901     3.1047 C.ar    
   6 C6             1.8981    -1.8698     3.1606 C.ar    
   7 C7             1.3204    -2.6299     2.1601 C.ar    
   8 C8             0.6781    -2.0085     1.1017 C.ar    
   9 O9             0.1095    -2.7544     0.1170 O.3     
  10 C10            0.2122    -4.1746     0.2375 C.3     
  11 S11            2.5792     0.4727     4.3826 S.o2    
  12 O12            3.5763    -0.3467     4.9774 O.2     
  13 O13            2.8560     1.7463     3.8166 O.2     
  14 N14            1.4224     0.7176     5.5420 N.am    
  15 C15            0.9198    -0.3574     6.2570 C.2     
  16 S16            1.4097    -2.0358     6.0485 S.3     
  17 C17            0.2813    -2.5252     7.3100 C.2     
  18 C18           -0.3455    -1.4269     7.7650 C.2     
  19 N19            0.0195    -0.2828     7.1877 N.2     
  20 C20           -1.3678    -1.4836     8.8378 C.ar    
  21 C21           -1.6363    -2.6883     9.4852 C.ar    
  22 C22           -2.5885    -2.7350    10.4833 C.ar    
  23 C23           -3.2757    -1.5894    10.8414 C.ar    
  24 C24           -3.0134    -0.3907    10.2022 C.ar    
  25 C25           -2.0599    -0.3309     9.2066 C.ar    
  26 N26           -3.7529     0.8311    10.5909 N.pl3   
  27 O27           -4.5915     0.7806    11.4728 O.2     
  28 O28           -3.5229     1.8869    10.0290 O.2     
  29 H29            1.0053     1.8021     0.0021 H       
  30 H30           -0.5445     1.7859    -0.8732 H       
  31 H31           -0.5275     1.7763     0.9067 H       
  32 H32            1.1645     1.2150     2.0060 H       
  33 H33            2.3950    -2.3556     3.9874 H       
  34 H34            1.3662    -3.7079     2.2062 H       
  35 H35            1.2633    -4.4628     0.2534 H       
  36 H36           -0.2667    -4.4964     1.1623 H       
  37 H37           -0.2815    -4.6480    -0.6112 H       
  38 H38            1.0967     1.6136     5.7205 H       
  39 H39            0.1204    -3.5350     7.6577 H       
  40 H40           -1.1006    -3.5836     9.2062 H       
  41 H41           -2.7976    -3.6681    10.9855 H       
  42 H42           -4.0202    -1.6307    11.6227 H       
  43 H43           -1.8559     0.6053     8.7083 H       
@<TRIPOS>BOND
   1    1    2 1
   2    1   29 1
   3    1   30 1
   4    1   31 1
   5    2    3 1
   6    3    4 ar
   7    3    8 ar
   8    4    5 ar
   9    4   32 1
  10    5    6 ar
  11    5   11 1
  12    6    7 ar
  13    6   33 1
  14    7    8 ar
  15    7   34 1
  16    8    9 1
  17    9   10 1
  18   10   35 1
  19   10   36 1
  20   10   37 1
  21   11   12 2
  22   11   13 2
  23   11   14 am
  24   14   15 1
  25   14   38 1
  26   15   16 1
  27   15   19 2
  28   16   17 1
  29   17   18 2
  30   17   39 1
  31   18   19 1
  32   18   20 1
  33   20   21 ar
  34   20   25 ar
  35   21   22 ar
  36   21   40 1
  37   22   23 ar
  38   22   41 1
  39   23   24 ar
  40   23   42 1
  41   24   25 ar
  42   24   26 1
  43   25   43 1
  44   26   27 2
  45   26   28 2

#	End of record

