#	Name: ASD03330780
#	Creating user name:	WinNT
#	Creation time:	15. 06. 2019 20:37

#	Modifying user name:	WinNT
#	Modification time:	15. 06. 2019 20:37

#	Program:	/corina/corina34_cracker 3.40 0067  02.08.2006

@<TRIPOS>MOLECULE
ASD03330780
  63   65    0    0    0
SMALL
NO_CHARGES


@<TRIPOS>ATOM
   1 C1            -0.0163     1.3496     0.0095 C.2     
   2 N2             0.0021    -0.0041     0.0020 N.pl3   
   3 C3             1.2790     1.7665    -0.0007 C.2     
   4 N4             2.0627     0.6567    -0.0315 N.2     
   5 C5             1.2991    -0.3991    -0.0357 C.2     
   6 C6             1.7790    -1.8270    -0.0763 C.3     
   7 C7             1.7457     3.1637     0.0179 C.2     
   8 O8             0.9395     4.0739     0.0450 O.2     
   9 C9             3.5303     4.8227     0.0232 C.3     
  10 N10            3.0662     3.4333     0.0048 N.am    
  11 C11            4.9235     4.9033    -0.6040 C.3     
  12 C12            3.5912     5.3131     1.4469 C.2     
  13 O13            3.2778     4.5748     2.3565 O.2     
  14 C14           -1.1805    -0.8695     0.0427 C.3     
  15 C15           -2.2074    -0.3668    -0.9764 C.3     
  16 C16           -3.0998     0.6890    -0.3315 C.3     
  17 N17           -2.3528     1.4815     0.6474 N.3     
  18 C18           -1.2495     2.2149     0.0095 C.3     
  19 C19            2.5955    -2.0546    -1.3501 C.3     
  20 C20            2.6543    -2.1059     1.1472 C.3     
  21 C21            3.1416    -3.5556     1.1059 C.3     
  22 C22            3.0828    -3.5043    -1.3913 C.3     
  23 C23           -3.2433     2.3971     1.3732 C.3     
  24 N24            3.9940     6.5723     1.7092 N.am    
  25 C25            4.8393     4.5243    -2.0839 C.3     
  26 C26            3.9991     5.5632    -2.8294 C.3     
  27 C27            6.2474     4.4837    -2.6809 C.3     
  28 C28            3.9581    -3.7832    -0.1678 C.3     
  29 H29            0.9209    -2.4991    -0.0699 H       
  30 H30            2.8391     5.4443    -0.5460 H       
  31 H31            3.7092     2.7074    -0.0168 H       
  32 H32            5.3058     5.9198    -0.5105 H       
  33 H33            5.5938     4.2143    -0.0901 H       
  34 H34           -0.8926    -1.8914    -0.2041 H       
  35 H35           -1.6161    -0.8441     1.0416 H       
  36 H36           -1.6878     0.0698    -1.8294 H       
  37 H37           -2.8206    -1.2018    -1.3152 H       
  38 H38           -3.4885     1.3504    -1.1057 H       
  39 H39           -3.9335     0.1959     0.1685 H       
  40 H40           -1.0516     3.1313     0.5654 H       
  41 H41           -1.5214     2.4617    -1.0168 H       
  42 H42            1.9719    -1.8559    -2.2217 H       
  43 H43            3.4537    -1.3825    -1.3565 H       
  44 H44            3.5124    -1.4338     1.1408 H       
  45 H45            2.0726    -1.9438     2.0546 H       
  46 H46            3.7651    -3.7543     1.9776 H       
  47 H47            2.2834    -4.2277     1.1123 H       
  48 H48            2.2246    -4.1764    -1.3849 H       
  49 H49            3.6645    -3.6664    -2.2988 H       
  50 H50           -4.0470     1.8280     1.8404 H       
  51 H51           -2.6762     2.9227     2.1414 H       
  52 H52           -3.6675     3.1199     0.6763 H       
  53 H53            4.2447     7.1628     0.9817 H       
  54 H54            4.0332     6.8879     2.6256 H       
  55 H55            4.3747     3.5432    -2.1818 H       
  56 H56            4.4636     6.5443    -2.7315 H       
  57 H57            3.9390     5.2931    -3.8837 H       
  58 H58            2.9959     5.5921    -2.4041 H       
  59 H59            6.8460     3.7436    -2.1498 H       
  60 H60            6.1874     4.2137    -3.7353 H       
  61 H61            6.7120     5.4649    -2.5830 H       
  62 H62            4.8162    -3.1111    -0.1742 H       
  63 H63            4.3052    -4.8160    -0.1972 H       
@<TRIPOS>BOND
   1    1    2 1
   2    1    3 2
   3    1   18 1
   4    2   14 1
   5    2    5 1
   6    3    4 1
   7    3    7 1
   8    4    5 2
   9    5    6 1
  10    6   20 1
  11    6   19 1
  12    6   29 1
  13    7    8 2
  14    7   10 am
  15    9   10 1
  16    9   11 1
  17    9   12 1
  18    9   30 1
  19   10   31 1
  20   11   25 1
  21   11   32 1
  22   11   33 1
  23   12   13 2
  24   12   24 am
  25   14   15 1
  26   14   34 1
  27   14   35 1
  28   15   16 1
  29   15   36 1
  30   15   37 1
  31   16   17 1
  32   16   38 1
  33   16   39 1
  34   17   18 1
  35   17   23 1
  36   18   40 1
  37   18   41 1
  38   19   22 1
  39   19   42 1
  40   19   43 1
  41   20   21 1
  42   20   44 1
  43   20   45 1
  44   21   28 1
  45   21   46 1
  46   21   47 1
  47   22   28 1
  48   22   48 1
  49   22   49 1
  50   23   50 1
  51   23   51 1
  52   23   52 1
  53   24   53 1
  54   24   54 1
  55   25   27 1
  56   25   26 1
  57   25   55 1
  58   26   56 1
  59   26   57 1
  60   26   58 1
  61   27   59 1
  62   27   60 1
  63   27   61 1
  64   28   62 1
  65   28   63 1

#	End of record

