#	Name: ASD03430903
#	Creating user name:	WinNT
#	Creation time:	15. 06. 2019 20:41

#	Modifying user name:	WinNT
#	Modification time:	15. 06. 2019 20:41

#	Program:	/corina/corina34_cracker 3.40 0067  02.08.2006

@<TRIPOS>MOLECULE
ASD03430903
  45   50    0    0    0
SMALL
NO_CHARGES


@<TRIPOS>ATOM
   1 O1            -1.1120     1.1414     0.5984 O.3     
   2 C2            -0.8623    -0.2706     0.4623 C.3     
   3 C3             0.4900    -0.3031    -0.2622 C.3     
   4 C4             1.1023     1.0260     0.0916 C.ar    
   5 C5             0.0752     1.8123     0.6044 C.ar    
   6 C6             0.3637     3.1048     1.0322 C.ar    
   7 C7             1.6504     3.6038     0.9369 C.ar    
   8 C8             2.6680     2.8103     0.4125 C.ar    
   9 C9             2.3855     1.5214    -0.0078 C.ar    
  10 N10            1.6174    -2.1820    -0.9135 N.am    
  11 C11            1.3386    -1.4572     0.1884 C.2     
  12 C12            0.3322    -0.4800    -1.7431 C.ar    
  13 C13           -0.3243     0.2326    -2.7211 C.ar    
  14 C14           -0.2810    -0.1945    -4.0368 C.ar    
  15 C15            0.4230    -1.3379    -4.3661 C.ar    
  16 C16            1.0819    -2.0561    -3.3896 C.ar    
  17 C17            1.0422    -1.6349    -2.0630 C.ar    
  18 O18            1.7020    -1.6913     1.3216 O.2     
  19 O19            3.8300     3.5277     0.4203 O.3     
  20 C20            3.6012     4.6176     1.3331 C.3     
  21 O21            2.1765     4.8172     1.2770 O.3     
  22 C22            2.4292    -3.4015    -0.9064 C.3     
  23 C23            1.5626    -4.5797    -0.5433 C.2     
  24 C24            1.3939    -5.1031     0.6853 C.2     
  25 N25            0.5461    -6.1383     0.5835 N.2     
  26 C26            0.1826    -6.2764    -0.6635 C.2     
  27 N27            0.7903    -5.3203    -1.3996 N.pl3   
  28 Cl28          -0.9058    -7.4839    -1.2727 Cl      
  29 C29            0.6559    -5.1185    -2.8444 C.3     
  30 H30           -0.7887    -0.7463     1.4402 H       
  31 H31           -1.6364    -0.7437    -0.1420 H       
  32 H32           -0.4223     3.7225     1.4409 H       
  33 H33            3.1720     0.9025    -0.4136 H       
  34 H34           -0.8738     1.1253    -2.4614 H       
  35 H35           -0.7962     0.3639    -4.8044 H       
  36 H36            0.4572    -1.6707    -5.3930 H       
  37 H37            1.6304    -2.9478    -3.6550 H       
  38 H38            3.9101     4.3437     2.3418 H       
  39 H39            4.1267     5.5127     1.0003 H       
  40 H40            2.8589    -3.5577    -1.8959 H       
  41 H41            3.2304    -3.3004    -0.1742 H       
  42 H42            1.8597    -4.7516     1.5941 H       
  43 H43           -0.1040    -4.3609    -3.0363 H       
  44 H44            1.6099    -4.7884    -3.2555 H       
  45 H45            0.3617    -6.0559    -3.3164 H       
@<TRIPOS>BOND
   1    1    2 1
   2    1    5 1
   3    2    3 1
   4    2   30 1
   5    2   31 1
   6    3    4 1
   7    3   11 1
   8    3   12 1
   9    4    5 ar
  10    4    9 ar
  11    5    6 ar
  12    6    7 ar
  13    6   32 1
  14    7    8 ar
  15    7   21 1
  16    8    9 ar
  17    8   19 1
  18    9   33 1
  19   10   11 am
  20   10   17 1
  21   10   22 1
  22   11   18 2
  23   12   13 ar
  24   12   17 ar
  25   13   14 ar
  26   13   34 1
  27   14   15 ar
  28   14   35 1
  29   15   16 ar
  30   15   36 1
  31   16   17 ar
  32   16   37 1
  33   19   20 1
  34   20   21 1
  35   20   38 1
  36   20   39 1
  37   22   23 1
  38   22   40 1
  39   22   41 1
  40   23   24 2
  41   23   27 1
  42   24   25 1
  43   24   42 1
  44   25   26 2
  45   26   27 1
  46   26   28 1
  47   27   29 1
  48   29   43 1
  49   29   44 1
  50   29   45 1

#	End of record

