#	Name: ASD01410566
#	Creating user name:	WinNT
#	Creation time:	15. 06. 2019 19:18

#	Modifying user name:	WinNT
#	Modification time:	15. 06. 2019 19:18

#	Program:	/corina/corina34_cracker 3.40 0067  02.08.2006

@<TRIPOS>MOLECULE
ASD01410566
  70   72    0    0    0
SMALL
NO_CHARGES


@<TRIPOS>ATOM
   1 C1            -0.0378    -0.6955     2.4229 C.ar    
   2 C2             0.6728    -1.1717     3.5158 C.ar    
   3 C3             2.0317    -1.3868     3.3965 C.ar    
   4 N4             2.6574    -1.1455     2.2605 N.ar    
   5 C5             2.0148    -0.6911     1.1970 C.ar    
   6 C6             0.6474    -0.4520     1.2451 C.ar    
   7 O7             2.6979    -0.4565     0.0486 O.3     
   8 C8             4.0457    -0.6356     0.0596 C.ar    
   9 C9             4.5742    -1.9198     0.0072 C.ar    
  10 C10            5.9408    -2.1128     0.0179 C.ar    
  11 C11            6.7980    -1.0231     0.0817 C.ar    
  12 C12            6.2707     0.2762     0.1349 C.ar    
  13 C13            4.8862     0.4612     0.1174 C.ar    
  14 N14            8.1783    -1.2187     0.0934 N.am    
  15 C15            8.8574    -1.2985    -1.0680 C.2     
  16 C16            8.8905    -1.3376     1.3680 C.3     
  17 O17           10.0454    -1.5424    -1.0603 O.2     
  18 C18            8.1406    -1.0847    -2.3763 C.3     
  19 C19            8.8109    -1.9215    -3.4678 C.3     
  20 C20            8.0832    -1.7044    -4.7960 C.3     
  21 C21            8.1474    -0.2240    -5.1767 C.3     
  22 C22            7.4771     0.6128    -4.0852 C.3     
  23 C23            8.2048     0.3958    -2.7570 C.3     
  24 C24            7.4197    -0.0069    -6.5050 C.3     
  25 C25            8.9361    -2.8071     1.7916 C.3     
  26 C26            9.6799    -2.9313     3.1229 C.3     
  27 O27            9.7226    -4.3038     3.5185 O.3     
  28 C28           10.3993    -4.5311     4.7564 C.3     
  29 C29           10.3838    -6.0266     5.0789 C.3     
  30 C30           11.1084    -6.2700     6.4043 C.3     
  31 C31           -0.0804     0.0655     0.0312 C.3     
  32 F32           -1.4374     0.2228     0.3330 F       
  33 F33            0.4597     1.2999    -0.3453 F       
  34 F34            0.0608    -0.8457    -1.0209 F       
  35 C35            7.1729     1.4397     0.2033 C.2     
  36 O36            8.3768     1.2753     0.2138 O.2     
  37 O37            6.6627     2.6859     0.2543 O.3     
  38 H38           -1.1019    -0.5230     2.4885 H       
  39 H39            0.1685    -1.3716     4.4497 H       
  40 H40            2.5893    -1.7570     4.2441 H       
  41 H41            3.9120    -2.7715    -0.0419 H       
  42 H42            6.3440    -3.1139    -0.0232 H       
  43 H43            4.4729     1.4582     0.1580 H       
  44 H44            9.9068    -0.9609     1.2529 H       
  45 H45            8.3715    -0.7559     2.1298 H       
  46 H46            7.0989    -1.3886    -2.2737 H       
  47 H47            9.8527    -1.6176    -3.5704 H       
  48 H48            8.7652    -2.9762    -3.1966 H       
  49 H49            8.5607    -2.3006    -5.5736 H       
  50 H50            7.0415    -2.0084    -4.6935 H       
  51 H51            9.1891     0.0800    -5.2793 H       
  52 H52            7.5228     1.6676    -4.3565 H       
  53 H53            6.4354     0.3089    -3.9827 H       
  54 H54            7.7273     0.9919    -1.9794 H       
  55 H55            9.2466     0.6997    -2.8596 H       
  56 H56            6.3780    -0.3108    -6.4024 H       
  57 H57            7.4654     1.0478    -6.7762 H       
  58 H58            7.8972    -0.6030    -7.2826 H       
  59 H59            7.9198    -3.1838     1.9068 H       
  60 H60            9.4551    -3.3889     1.0298 H       
  61 H61           10.6963    -2.5546     3.0077 H       
  62 H62            9.1610    -2.3495     3.8847 H       
  63 H63           11.4306    -4.1876     4.6751 H       
  64 H64            9.8953    -3.9825     5.5521 H       
  65 H65            9.3526    -6.3701     5.1602 H       
  66 H66           10.8879    -6.5752     4.2833 H       
  67 H67           12.1396    -5.9265     6.3231 H       
  68 H68           10.6043    -5.7215     7.2000 H       
  69 H69           11.0973    -7.3354     6.6342 H       
  70 H70            7.2938     3.4173     0.2983 H       
@<TRIPOS>BOND
   1    1    2 ar
   2    1    6 ar
   3    1   38 1
   4    2    3 ar
   5    2   39 1
   6    3    4 ar
   7    3   40 1
   8    4    5 ar
   9    5    6 ar
  10    5    7 1
  11    6   31 1
  12    7    8 1
  13    8    9 ar
  14    8   13 ar
  15    9   10 ar
  16    9   41 1
  17   10   11 ar
  18   10   42 1
  19   11   12 ar
  20   11   14 1
  21   12   13 ar
  22   12   35 1
  23   13   43 1
  24   14   15 am
  25   14   16 1
  26   15   17 2
  27   15   18 1
  28   16   25 1
  29   16   44 1
  30   16   45 1
  31   18   19 1
  32   18   23 1
  33   18   46 1
  34   19   20 1
  35   19   47 1
  36   19   48 1
  37   20   21 1
  38   20   49 1
  39   20   50 1
  40   21   22 1
  41   21   24 1
  42   21   51 1
  43   22   23 1
  44   22   52 1
  45   22   53 1
  46   23   54 1
  47   23   55 1
  48   24   56 1
  49   24   57 1
  50   24   58 1
  51   25   26 1
  52   25   59 1
  53   25   60 1
  54   26   27 1
  55   26   61 1
  56   26   62 1
  57   27   28 1
  58   28   29 1
  59   28   63 1
  60   28   64 1
  61   29   30 1
  62   29   65 1
  63   29   66 1
  64   30   67 1
  65   30   68 1
  66   30   69 1
  67   31   32 1
  68   31   33 1
  69   31   34 1
  70   35   36 2
  71   35   37 1
  72   37   70 1

#	End of record

