#	Name: ASD03240356
#	Creating user name:	WinNT
#	Creation time:	15. 06. 2019 20:34

#	Modifying user name:	WinNT
#	Modification time:	15. 06. 2019 20:34

#	Program:	/corina/corina34_cracker 3.40 0067  02.08.2006

@<TRIPOS>MOLECULE
ASD03240356
  75   80    0    0    0
SMALL
NO_CHARGES


@<TRIPOS>ATOM
   1 N1             0.3505     1.1928     0.9293 N.2     
   2 C2             0.3706    -0.1058     0.7595 C.2     
   3 C3             1.2176    -0.6876    -0.2094 C.2     
   4 N4             2.0095     0.1036    -0.9636 N.am    
   5 C5             1.9743     1.4575    -0.7722 C.2     
   6 C6             1.1261     1.9927     0.1935 C.2     
   7 C7             1.0835     3.4584     0.4055 C.ar    
   8 C8            -0.1407     4.1256     0.4393 C.ar    
   9 C9            -0.1739     5.4907     0.6376 C.ar    
  10 C10            1.0038     6.1974     0.8027 C.ar    
  11 C11            2.2213     5.5412     0.7697 C.ar    
  12 C12            2.2671     4.1755     0.5778 C.ar    
  13 C13            2.8299     2.3444    -1.5827 C.ar    
  14 C14            4.1941     2.0728    -1.7175 C.ar    
  15 C15            4.9879     2.9066    -2.4769 C.ar    
  16 C16            4.4367     4.0098    -3.1046 C.ar    
  17 C17            3.0866     4.2853    -2.9754 C.ar    
  18 C18            2.2792     3.4570    -2.2243 C.ar    
  19 O19            1.2336    -1.8974    -0.3635 O.2     
  20 C20            0.9605     7.6882     1.0188 C.3     
  21 N21            0.8749     7.9721     2.4576 N.3     
  22 C22           -0.1272     7.1154     3.1043 C.3     
  23 C23            0.5932     9.3931     2.6978 C.3     
  24 C24            0.6552     9.6801     4.1997 C.3     
  25 C25           -0.3733     8.8071     4.9241 C.3     
  26 C26           -0.0867     7.3344     4.6184 C.3     
  27 N27           -0.2784     9.0349     6.3682 N.am    
  28 C28           -1.3006     9.5078     7.1877 C.ar    
  29 N29            0.5380     9.1349     8.4101 N.am    
  30 C30            0.8099     8.8172     7.1303 C.2     
  31 C31           -2.6134     9.8853     6.9496 C.ar    
  32 C32           -3.4025    10.3247     7.9944 C.ar    
  33 C33           -2.8884    10.3899     9.2782 C.ar    
  34 C34           -1.5820    10.0161     9.5250 C.ar    
  35 C35           -0.7821     9.5735     8.4824 C.ar    
  36 O36            1.8771     8.3965     6.7243 O.2     
  37 C37           -0.5154    -0.9849     1.6040 C.3     
  38 C38           -1.2328    -0.1304     2.6510 C.3     
  39 C39           -1.5501    -1.6735     0.7117 C.3     
  40 C40           -2.0349    -1.0371     3.5867 C.3     
  41 H41            2.5961    -0.2830    -1.6324 H       
  42 H42           -1.0607     3.5750     0.3102 H       
  43 H43           -1.1213     6.0086     0.6636 H       
  44 H44            3.1375     6.0983     0.8988 H       
  45 H45            3.2178     3.6636     0.5570 H       
  46 H46            4.6257     1.2124    -1.2278 H       
  47 H47            6.0424     2.6982    -2.5816 H       
  48 H48            5.0632     4.6592    -3.6981 H       
  49 H49            2.6633     5.1482    -3.4678 H       
  50 H50            1.2248     3.6703    -2.1285 H       
  51 H51            1.8650     8.1408     0.6124 H       
  52 H52            0.0882     8.1033     0.5141 H       
  53 H53           -1.1184     7.3677     2.7273 H       
  54 H54            0.0905     6.0707     2.8825 H       
  55 H55            1.3343    10.0027     2.1807 H       
  56 H56           -0.4013     9.6347     2.3227 H       
  57 H57            1.6536     9.4518     4.5729 H       
  58 H58            0.4308    10.7316     4.3789 H       
  59 H59           -1.3752     9.0625     4.5791 H       
  60 H60           -0.8413     6.7099     5.0967 H       
  61 H61            0.8999     7.0692     4.9982 H       
  62 H62            1.1553     9.0672     9.1553 H       
  63 H63           -3.0179     9.8361     5.9494 H       
  64 H64           -4.4250    10.6191     7.8091 H       
  65 H65           -3.5115    10.7350    10.0900 H       
  66 H66           -1.1844    10.0682    10.5277 H       
  67 H67            0.0919    -1.7390     2.1047 H       
  68 H68           -0.4975     0.4290     3.2293 H       
  69 H69           -1.9079     0.5648     2.1520 H       
  70 H70           -2.1575    -0.9195     0.2111 H       
  71 H71           -1.0390    -2.2823    -0.0341 H       
  72 H72           -2.1909    -2.3094     1.3226 H       
  73 H73           -2.5460    -0.4284     4.3326 H       
  74 H74           -2.7702    -1.5965     3.0084 H       
  75 H75           -1.3598    -1.7324     4.0857 H       
@<TRIPOS>BOND
   1    1    2 2
   2    1    6 1
   3    2    3 1
   4    2   37 1
   5    3    4 am
   6    3   19 2
   7    4    5 1
   8    4   41 1
   9    5    6 2
  10    5   13 1
  11    6    7 1
  12    7    8 ar
  13    7   12 ar
  14    8    9 ar
  15    8   42 1
  16    9   10 ar
  17    9   43 1
  18   10   11 ar
  19   10   20 1
  20   11   12 ar
  21   11   44 1
  22   12   45 1
  23   13   14 ar
  24   13   18 ar
  25   14   15 ar
  26   14   46 1
  27   15   16 ar
  28   15   47 1
  29   16   17 ar
  30   16   48 1
  31   17   18 ar
  32   17   49 1
  33   18   50 1
  34   20   21 1
  35   20   51 1
  36   20   52 1
  37   21   23 1
  38   21   22 1
  39   22   26 1
  40   22   53 1
  41   22   54 1
  42   23   24 1
  43   23   55 1
  44   23   56 1
  45   24   25 1
  46   24   57 1
  47   24   58 1
  48   25   26 1
  49   25   27 1
  50   25   59 1
  51   26   60 1
  52   26   61 1
  53   27   28 1
  54   27   30 am
  55   28   31 ar
  56   28   35 ar
  57   29   30 am
  58   29   35 1
  59   29   62 1
  60   30   36 2
  61   31   32 ar
  62   31   63 1
  63   32   33 ar
  64   32   64 1
  65   33   34 ar
  66   33   65 1
  67   34   35 ar
  68   34   66 1
  69   37   38 1
  70   37   39 1
  71   37   67 1
  72   38   40 1
  73   38   68 1
  74   38   69 1
  75   39   70 1
  76   39   71 1
  77   39   72 1
  78   40   73 1
  79   40   74 1
  80   40   75 1

#	End of record

