#	Name: ASD01100013
#	Creating user name:	WinNT
#	Creation time:	15. 06. 2019 18:58

#	Modifying user name:	WinNT
#	Modification time:	15. 06. 2019 18:58

#	Program:	/corina/corina34_cracker 3.40 0067  02.08.2006

@<TRIPOS>MOLECULE
ASD01100013
  28   28    0    0    0
SMALL
NO_CHARGES


@<TRIPOS>ATOM
   1 C1             0.2968     0.7946    -0.6757 C.ar    
   2 C2             0.4931    -0.5705    -0.5664 C.ar    
   3 C3             1.7414    -1.0648    -0.2322 C.ar    
   4 C4             2.7915    -0.1946    -0.0078 C.ar    
   5 C5             2.5947     1.1694    -0.1171 C.ar    
   6 C6             1.3476     1.6638    -0.4510 C.ar    
   7 C7             3.7399     2.1177     0.1282 C.3     
   8 C8             3.3892     3.0516     1.2882 C.3     
   9 C9             3.0502     2.2206     2.5274 C.3     
  10 C10            4.5841     3.9574     1.5929 C.3     
  11 Cl11          -0.8265    -1.6629    -0.8479 Cl      
  12 C12            3.9923     2.9326    -1.1141 C.2     
  13 N13            5.0741     3.7331    -1.1867 N.am    
  14 O14            3.2219     2.8681    -2.0485 O.2     
  15 H15           -0.6763     1.1808    -0.9409 H       
  16 H16            1.8952    -2.1303    -0.1464 H       
  17 H17            3.7659    -0.5802     0.2534 H       
  18 H18            1.1945     2.7295    -0.5363 H       
  19 H19            4.6356     1.5488     0.3777 H       
  20 H20            2.5297     3.6636     1.0149 H       
  21 H21            3.9097     1.6086     2.8007 H       
  22 H22            2.8003     2.8859     3.3538 H       
  23 H23            2.1989     1.5753     2.3103 H       
  24 H24            4.8188     4.5573     0.7136 H       
  25 H25            4.3381     4.6152     2.4265 H       
  26 H26            5.4466     3.3449     1.8557 H       
  27 H27            5.7269     3.7325    -0.4692 H       
  28 H28            5.1999     4.3098    -1.9564 H       
@<TRIPOS>BOND
   1    1    2 ar
   2    1    6 ar
   3    1   15 1
   4    2    3 ar
   5    2   11 1
   6    3    4 ar
   7    3   16 1
   8    4    5 ar
   9    4   17 1
  10    5    6 ar
  11    5    7 1
  12    6   18 1
  13    7    8 1
  14    7   12 1
  15    7   19 1
  16    8    9 1
  17    8   10 1
  18    8   20 1
  19    9   21 1
  20    9   22 1
  21    9   23 1
  22   10   24 1
  23   10   25 1
  24   10   26 1
  25   12   13 am
  26   12   14 2
  27   13   27 1
  28   13   28 1

#	End of record

