#	Name: ASD03240269
#	Creating user name:	WinNT
#	Creation time:	15. 06. 2019 20:34

#	Modifying user name:	WinNT
#	Modification time:	15. 06. 2019 20:34

#	Program:	/corina/corina34_cracker 3.40 0067  02.08.2006

@<TRIPOS>MOLECULE
ASD03240269
  85   90    0    0    0
SMALL
NO_CHARGES


@<TRIPOS>ATOM
   1 C1            -0.0178     1.3677     0.0641 C.2     
   2 N2             0.0004    -0.0070     0.0590 N.pl3   
   3 C3            -2.6860     3.9948     0.0984 C.3     
   4 C4            -1.2369     3.5040     0.0831 C.3     
   5 N5            -1.2174     2.0392     0.0777 N.pl3   
   6 N6             1.1022     2.0343     0.0614 N.2     
   7 N7            -2.7054     5.4597     0.1039 N.pl3   
   8 C8            -3.9171     6.1379     0.1176 C.ar    
   9 C9            -3.9356     7.5408     0.1228 C.ar    
  10 C10           -5.1489     8.2150     0.1361 C.ar    
  11 C11           -6.3436     7.4931     0.1442 C.ar    
  12 C12           -6.3155     6.0948     0.1390 C.ar    
  13 C13           -5.1118     5.4267     0.1204 C.ar    
  14 C14           -7.6357     8.2049     0.1589 C.2     
  15 N15           -8.7891     7.5078     0.1667 N.am    
  16 O16           -7.6600     9.4208     0.1638 O.2     
  17 C17          -10.0122     8.1788     0.2935 C.ar    
  18 C18          -11.1360     7.7054    -0.3710 C.ar    
  19 C19          -10.1022     9.3139     1.0884 C.ar    
  20 C20          -11.3077     9.9750     1.2138 C.ar    
  21 C21          -12.4304     9.5050     0.5447 C.ar    
  22 C22          -12.3415     8.3667    -0.2460 C.ar    
  23 N23          -13.6521    10.1746     0.6721 N.pl3   
  24 C24          -14.8362     9.6788    -0.0337 C.3     
  25 C25          -13.7473    11.3716     1.5113 C.3     
  26 C26           -2.6626     8.3012     0.1146 C.ar    
  27 C27           -1.6550     7.9819     1.0391 C.ar    
  28 C28           -0.4800     8.6632     1.0523 C.ar    
  29 C29           -0.2604     9.7032     0.1317 C.ar    
  30 C30           -1.2707    10.0341    -0.8068 C.ar    
  31 C31           -2.4755     9.3149    -0.8069 C.ar    
  32 C32          -13.4522    12.5931     0.6795 C.ar    
  33 C33          -15.5700     8.6977     0.8439 C.ar    
  34 C34          -14.4796    13.2498     0.0281 C.ar    
  35 C35          -14.2102    14.3703    -0.7347 C.ar    
  36 C36          -12.9108    14.8351    -0.8463 C.ar    
  37 C37          -11.8826    14.1766    -0.1934 C.ar    
  38 C38          -12.1551    13.0593     0.5730 C.ar    
  39 C39          -16.5551     9.1440     1.7051 C.ar    
  40 C40          -17.2290     8.2452     2.5101 C.ar    
  41 C41          -16.9172     6.8973     2.4537 C.ar    
  42 C42          -15.9305     6.4516     1.5907 C.ar    
  43 C43          -15.2616     7.3515     0.7829 C.ar    
  44 F44          -12.6462    15.9302    -1.5920 F       
  45 F45          -17.5751     6.0178     3.2404 F       
  46 C46            0.9462    10.4234     0.1253 C.ar    
  47 C47            1.1291    11.4252    -0.7779 C.ar    
  48 C48            0.1363    11.7504    -1.7004 C.ar    
  49 C49           -1.0452    11.0755    -1.7246 C.ar    
  50 H50            0.8468    -0.4808     0.0534 H       
  51 H51           -0.8331    -0.5032     0.0610 H       
  52 H52           -3.2032     3.6278    -0.7881 H       
  53 H53           -3.1866     3.6215     0.9918 H       
  54 H54           -0.7363     3.8774    -0.8102 H       
  55 H55           -0.7196     3.8710     0.9696 H       
  56 H56           -2.0509     1.5431     0.0837 H       
  57 H57            1.0893     3.0042     0.0650 H       
  58 H58           -1.8719     5.9558     0.0978 H       
  59 H59           -5.1685     9.2948     0.1405 H       
  60 H60           -7.2406     5.5375     0.1456 H       
  61 H61           -5.0954     4.3468     0.1161 H       
  62 H62           -8.7723     6.5414     0.0845 H       
  63 H63          -11.0668     6.8203    -0.9859 H       
  64 H64           -9.2292     9.6794     1.6087 H       
  65 H65          -11.3779    10.8575     1.8326 H       
  66 H66          -13.2144     8.0011    -0.7664 H       
  67 H67          -15.4935    10.5149    -0.2725 H       
  68 H68          -14.5293     9.1833    -0.9548 H       
  69 H69          -14.7535    11.4472     1.9236 H       
  70 H70          -13.0254    11.3032     2.3251 H       
  71 H71           -1.8165     7.1843     1.7491 H       
  72 H72            0.2852     8.4064     1.7698 H       
  73 H73           -3.2535     9.5563    -1.5161 H       
  74 H74          -15.4931    12.8869     0.1150 H       
  75 H75          -15.0130    14.8830    -1.2438 H       
  76 H76          -10.8686    14.5382    -0.2798 H       
  77 H77          -11.3533    12.5455     1.0824 H       
  78 H78          -16.7978    10.1954     1.7492 H       
  79 H79          -17.9982     8.5941     3.1831 H       
  80 H80          -15.6865     5.4004     1.5459 H       
  81 H81          -14.4919     7.0041     0.1097 H       
  82 H82            1.7249    10.1834     0.8341 H       
  83 H83            2.0577    11.9767    -0.7795 H       
  84 H84            0.3068    12.5500    -2.4061 H       
  85 H85           -1.8055    11.3380    -2.4452 H       
@<TRIPOS>BOND
   1    1    2 1
   2    1    6 2
   3    1    5 1
   4    2   50 1
   5    2   51 1
   6    3    4 1
   7    3    7 1
   8    3   52 1
   9    3   53 1
  10    4    5 1
  11    4   54 1
  12    4   55 1
  13    5   56 1
  14    6   57 1
  15    7    8 1
  16    7   58 1
  17    8    9 ar
  18    8   13 ar
  19    9   10 ar
  20    9   26 1
  21   10   11 ar
  22   10   59 1
  23   11   12 ar
  24   11   14 1
  25   12   13 ar
  26   12   60 1
  27   13   61 1
  28   14   15 am
  29   14   16 2
  30   15   17 1
  31   15   62 1
  32   17   18 ar
  33   17   19 ar
  34   18   22 ar
  35   18   63 1
  36   19   20 ar
  37   19   64 1
  38   20   21 ar
  39   20   65 1
  40   21   22 ar
  41   21   23 1
  42   22   66 1
  43   23   24 1
  44   23   25 1
  45   24   33 1
  46   24   67 1
  47   24   68 1
  48   25   32 1
  49   25   69 1
  50   25   70 1
  51   26   27 ar
  52   26   31 ar
  53   27   28 ar
  54   27   71 1
  55   28   29 ar
  56   28   72 1
  57   29   30 ar
  58   29   46 ar
  59   30   31 ar
  60   30   49 ar
  61   31   73 1
  62   32   34 ar
  63   32   38 ar
  64   33   39 ar
  65   33   43 ar
  66   34   35 ar
  67   34   74 1
  68   35   36 ar
  69   35   75 1
  70   36   37 ar
  71   36   44 1
  72   37   38 ar
  73   37   76 1
  74   38   77 1
  75   39   40 ar
  76   39   78 1
  77   40   41 ar
  78   40   79 1
  79   41   42 ar
  80   41   45 1
  81   42   43 ar
  82   42   80 1
  83   43   81 1
  84   46   47 ar
  85   46   82 1
  86   47   48 ar
  87   47   83 1
  88   48   49 ar
  89   48   84 1
  90   49   85 1

#	End of record

