#	Name: ASD03091036
#	Creating user name:	WinNT
#	Creation time:	15. 06. 2019 20:29

#	Modifying user name:	WinNT
#	Modification time:	15. 06. 2019 20:29

#	Program:	/corina/corina34_cracker 3.40 0067  02.08.2006

@<TRIPOS>MOLECULE
ASD03091036
  35   36    0    0    0
SMALL
NO_CHARGES


@<TRIPOS>ATOM
   1 C1            -0.5862     0.8630     0.3340 C.2     
   2 C2            -1.2536    -0.4253     0.6189 C.ar    
   3 C3            -1.0690    -1.0524     1.8522 C.ar    
   4 C4            -1.6939    -2.2542     2.1130 C.ar    
   5 C5            -2.5029    -2.8395     1.1556 C.ar    
   6 C6            -2.6912    -2.2233    -0.0710 C.ar    
   7 C7            -2.0750    -1.0161    -0.3419 C.ar    
   8 O8             0.6230     0.9528     0.4188 O.2     
   9 N9            -1.3182     1.9362    -0.0252 N.am    
  10 N10           -0.2035    -0.4290     2.8786 N.pl3   
  11 O11            0.0586    -1.0334     3.9030 O.2     
  12 O12            0.2464     0.6885     2.6987 O.2     
  13 C13           -0.6569     3.2126    -0.3074 C.3     
  14 C14           -1.6910     4.2229    -0.8082 C.3     
  15 C15           -2.7517     4.5910     0.2426 C.3     
  16 C16           -2.6398     6.0380    -0.2659 C.3     
  17 C17           -1.2158     5.6831    -0.7256 C.3     
  18 C18           -2.2812     3.8445    -2.1682 C.3     
  19 O19           -1.2564     3.8951    -3.1628 O.3     
  20 F20           -3.4826    -2.8004    -1.0014 F       
  21 H21           -1.5508    -2.7398     3.0671 H       
  22 H22           -2.9895    -3.7807     1.3649 H       
  23 H23           -2.2254    -0.5336    -1.2963 H       
  24 H24           -2.2828     1.8634    -0.0967 H       
  25 H25           -0.1917     3.5899     0.6032 H       
  26 H26            0.1065     3.0652    -1.0713 H       
  27 H27           -3.7254     4.1373     0.0578 H       
  28 H28           -2.4116     4.4618     1.2701 H       
  29 H29           -3.3195     6.2661    -1.0869 H       
  30 H30           -2.6690     6.7836     0.5287 H       
  31 H31           -0.4559     5.8525     0.0372 H       
  32 H32           -0.9496     6.1110    -1.6921 H       
  33 H33           -2.6900     2.8353    -2.1187 H       
  34 H34           -3.0744     4.5455    -2.4278 H       
  35 H35           -1.5597     3.6662    -4.0520 H       
@<TRIPOS>BOND
   1    1    2 1
   2    1    8 2
   3    1    9 am
   4    2    3 ar
   5    2    7 ar
   6    3    4 ar
   7    3   10 1
   8    4    5 ar
   9    4   21 1
  10    5    6 ar
  11    5   22 1
  12    6    7 ar
  13    6   20 1
  14    7   23 1
  15    9   13 1
  16    9   24 1
  17   10   11 2
  18   10   12 2
  19   13   14 1
  20   13   25 1
  21   13   26 1
  22   14   15 1
  23   14   17 1
  24   14   18 1
  25   15   16 1
  26   15   27 1
  27   15   28 1
  28   16   17 1
  29   16   29 1
  30   16   30 1
  31   17   31 1
  32   17   32 1
  33   18   19 1
  34   18   33 1
  35   18   34 1
  36   19   35 1

#	End of record

