#	Name: ASD00390002
#	Creating user name:	WinNT
#	Creation time:	15. 06. 2019 18:35

#	Modifying user name:	WinNT
#	Modification time:	15. 06. 2019 18:35

#	Program:	/corina/corina34_cracker 3.40 0067  02.08.2006

@<TRIPOS>MOLECULE
ASD00390002
  38   39    0    0    0
SMALL
NO_CHARGES


@<TRIPOS>ATOM
   1 C1            -0.0167     1.3796     0.0096 C.ar    
   2 C2             0.0021    -0.0041     0.0020 C.ar    
   3 C3            -1.1808    -0.7132     0.0100 C.ar    
   4 C4            -2.4002    -0.0310     0.0257 C.ar    
   5 C5            -2.4113     1.3663     0.0333 C.ar    
   6 C6            -1.2204     2.0619     0.0306 C.ar    
   7 C7            -3.6687    -0.7817     0.0338 C.2     
   8 C8            -4.8383    -0.1230     0.0490 C.2     
   9 C9            -6.1067    -0.8737     0.0570 C.ar    
  10 C10           -6.0956    -2.2710     0.0490 C.ar    
  11 C11           -7.2865    -2.9666     0.0571 C.ar    
  12 C12           -8.4903    -2.2843     0.0727 C.ar    
  13 C13           -8.5090    -0.9006     0.0803 C.ar    
  14 C14           -7.3260    -0.1915     0.0787 C.ar    
  15 S15           -7.3524     1.5702     0.0883 S.o2    
  16 O16           -7.5054     1.9618     1.4457 O.2     
  17 O17           -6.2659     1.9922    -0.7246 O.2     
  18 O18           -8.6213     2.0058    -0.6303 O.3     
  19 S19           -1.1545    -2.4750    -0.0003 S.o2    
  20 O20           -0.9814    -2.8816     1.3502 O.2     
  21 O21           -2.2529    -2.8880    -0.8017 O.2     
  22 O22            0.1037    -2.9024    -0.7425 O.3     
  23 N23            1.2572     2.1335     0.0015 N.pl3   
  24 O24            2.3185     1.5359    -0.0118 O.2     
  25 O25            1.2442     3.3514     0.0082 O.2     
  26 N26           -9.7642    -3.0382     0.0809 N.pl3   
  27 O27           -9.7511    -4.2561     0.0738 O.2     
  28 O28          -10.8254    -2.4406     0.0946 O.2     
  29 H29            0.9453    -0.5299    -0.0105 H       
  30 H30           -3.3501     1.9001     0.0455 H       
  31 H31           -1.2273     3.1419     0.0368 H       
  32 H32           -3.6571    -1.8616     0.0275 H       
  33 H33           -4.8499     0.9569     0.0552 H       
  34 H34           -5.1569    -2.8048     0.0361 H       
  35 H35           -7.2795    -4.0466     0.0509 H       
  36 H36           -9.4523    -0.3748     0.0918 H       
  37 H37           -8.7348     2.9647    -0.6817 H       
  38 H38            0.2163    -3.8607    -0.8062 H       
@<TRIPOS>BOND
   1    1    2 ar
   2    1   23 1
   3    1    6 ar
   4    2    3 ar
   5    2   29 1
   6    3    4 ar
   7    3   19 1
   8    4    5 ar
   9    4    7 1
  10    5    6 ar
  11    5   30 1
  12    6   31 1
  13    7    8 2
  14    7   32 1
  15    8    9 1
  16    8   33 1
  17    9   10 ar
  18    9   14 ar
  19   10   11 ar
  20   10   34 1
  21   11   12 ar
  22   11   35 1
  23   12   13 ar
  24   12   26 1
  25   13   14 ar
  26   13   36 1
  27   14   15 1
  28   15   16 2
  29   15   17 2
  30   15   18 1
  31   18   37 1
  32   19   20 2
  33   19   21 2
  34   19   22 1
  35   22   38 1
  36   23   24 2
  37   23   25 2
  38   26   27 2
  39   26   28 2

#	End of record

