#	Name: ASD05213013
#	Creating user name:	WinNT
#	Creation time:	15. 06. 2019 20:57

#	Modifying user name:	WinNT
#	Modification time:	15. 06. 2019 20:57

#	Program:	/corina/corina34_cracker 3.40 0067  02.08.2006

@<TRIPOS>MOLECULE
ASD05213013
  24   26    0    0    0
SMALL
NO_CHARGES


@<TRIPOS>ATOM
   1 S1            -0.0218     1.7577     0.0117 S.3     
   2 C2             0.0021    -0.0041     0.0020 C.2     
   3 S3            -1.3858    -1.0024     0.0099 S.3     
   4 C4            -0.3659    -2.4388    -0.0082 C.2     
   5 C5             0.9078    -2.0422    -0.0184 C.2     
   6 N6             1.0752    -0.7326    -0.0178 N.2     
   7 C7             1.7090     2.0873    -0.0030 C.ar    
   8 N8             2.5894     1.0920    -0.0168 N.ar    
   9 C9             3.8944     1.3310    -0.0279 C.ar    
  10 N10            4.3878     2.5588    -0.0260 N.ar    
  11 C11            3.5781     3.6132    -0.0126 C.ar    
  12 C12            2.1885     3.4091    -0.0064 C.ar    
  13 N13            3.7612     4.9729    -0.0065 N.pl3   
  14 C14            2.5257     5.5516     0.0086 C.2     
  15 N15            1.6049     4.6324     0.0076 N.2     
  16 N16            4.7707     0.2582    -0.0416 N.pl3   
  17 N17           -0.8401    -3.8428    -0.0116 N.pl3   
  18 O18           -0.0357    -4.7573    -0.0242 O.2     
  19 O19           -2.0343    -4.0822    -0.0017 O.2     
  20 H20            1.7351    -2.7363    -0.0299 H       
  21 H21            4.6127     5.4375    -0.0117 H       
  22 H22            2.3396     6.6154     0.0165 H       
  23 H23            4.4269    -0.6488    -0.0429 H       
  24 H24            5.7281     0.4140    -0.0499 H       
@<TRIPOS>BOND
   1    1    2 1
   2    1    7 1
   3    2    3 1
   4    2    6 2
   5    3    4 1
   6    4    5 2
   7    4   17 1
   8    5    6 1
   9    5   20 1
  10    7    8 ar
  11    7   12 ar
  12    8    9 ar
  13    9   10 ar
  14    9   16 1
  15   10   11 ar
  16   11   12 ar
  17   11   13 1
  18   12   15 1
  19   13   14 1
  20   13   21 1
  21   14   15 2
  22   14   22 1
  23   16   23 1
  24   16   24 1
  25   17   18 2
  26   17   19 2

#	End of record

