#	Name: ASD01208605
#	Creating user name:	WinNT
#	Creation time:	15. 06. 2019 19:10

#	Modifying user name:	WinNT
#	Modification time:	15. 06. 2019 19:10

#	Program:	/corina/corina34_cracker 3.40 0067  02.08.2006

@<TRIPOS>MOLECULE
ASD01208605
  82   83    0    0    0
SMALL
NO_CHARGES


@<TRIPOS>ATOM
   1 N1            -0.4673     2.8605    -0.1914 N.pl3   
   2 C2            -0.9039     1.6508     0.3001 C.2     
   3 C3             0.1896     0.9758     0.8045 C.2     
   4 C4             1.3057     1.7888     0.6159 C.2     
   5 C5             0.8805     2.9463     0.0005 C.2     
   6 C6            -2.2869     1.1649     0.2895 C.2     
   7 O7            -2.5516     0.0722     0.7557 O.2     
   8 N8            -3.2653     1.9282    -0.2364 N.am    
   9 C9             1.7386     4.0863    -0.3857 C.ar    
  10 C10            1.1794     5.2045    -1.0058 C.ar    
  11 C11            1.9869     6.2703    -1.3660 C.ar    
  12 C12            3.3504     6.2272    -1.1116 C.ar    
  13 C13            3.9104     5.1176    -0.4955 C.ar    
  14 C14            3.1089     4.0498    -0.1263 C.ar    
  15 O15            5.2463     5.0805    -0.2487 O.3     
  16 Si16           5.6538     5.5284     1.2657 Si      
  17 C17            8.1955     4.5446     0.7328 C.3     
  18 C18            7.5007     5.7483     1.3725 C.3     
  19 C19            7.9061     7.0242     0.6318 C.3     
  20 C20            3.3405     6.8715     2.0116 C.3     
  21 C21            4.8117     7.1363     1.6856 C.3     
  22 C22            5.4968     7.7694     2.8984 C.3     
  23 C23            5.6723     2.8578     2.0270 C.3     
  24 C24            5.1145     4.2122     2.4689 C.3     
  25 C25            5.6421     4.5502     3.8647 C.3     
  26 O26            1.4433     7.3597    -1.9698 O.3     
  27 C27           -0.2347     8.2479    -3.4652 C.3     
  28 C28            0.0569     7.2893    -2.3089 C.3     
  29 C29           -0.7858     7.6839    -1.0944 C.3     
  30 O30           -0.0186     9.5933    -3.0346 O.3     
  31 C31           -0.2644    10.5735    -4.0449 C.3     
  32 C32           -4.8703     0.5651    -1.4803 C.3     
  33 C33           -4.6475     1.4426    -0.2469 C.3     
  34 C34           -5.6063     2.6341    -0.2888 C.3     
  35 C35           -5.2997     3.5767     0.8767 C.3     
  36 O36           -5.4422     3.3345    -1.5236 O.3     
  37 H37           -1.0241     3.5367    -0.6080 H       
  38 H38            0.1815    -0.0026     1.2617 H       
  39 H39            2.3207     1.5542     0.9008 H       
  40 H40           -3.0543     2.7990    -0.6080 H       
  41 H41            0.1184     5.2385    -1.2047 H       
  42 H42            3.9774     7.0598    -1.3945 H       
  43 H43            3.5450     3.1882     0.3574 H       
  44 H44            9.2755     4.6881     0.7667 H       
  45 H45            7.9318     3.6396     1.2802 H       
  46 H46            7.8741     4.4485    -0.3043 H       
  47 H47            7.7975     5.8255     2.4185 H       
  48 H48            7.4111     7.8817     1.0876 H       
  49 H49            8.9867     7.1529     0.6943 H       
  50 H50            7.6093     6.9470    -0.4141 H       
  51 H51            2.8234     7.8204     2.1542 H       
  52 H52            2.8785     6.3260     1.1888 H       
  53 H53            3.2714     6.2795     2.9242 H       
  54 H54            4.8790     7.8146     0.8351 H       
  55 H55            6.5698     7.8333     2.7172 H       
  56 H56            5.0956     8.7697     3.0612 H       
  57 H57            5.3132     7.1562     3.7806 H       
  58 H58            6.7540     2.8490     2.1614 H       
  59 H59            5.2249     2.0667     2.6287 H       
  60 H60            5.4355     2.6928     0.9759 H       
  61 H61            4.0258     4.1663     2.4933 H       
  62 H62            5.1593     5.4583     4.2256 H       
  63 H63            5.4229     3.7272     4.5451 H       
  64 H64            6.7199     4.7057     3.8180 H       
  65 H65            0.4289     8.0226    -4.3000 H       
  66 H66           -1.2707     8.1299    -3.7825 H       
  67 H67           -0.1925     6.2715    -2.6090 H       
  68 H68           -0.5364     8.7017    -0.7943 H       
  69 H69           -1.8433     7.6302    -1.3530 H       
  70 H70           -0.5781     7.0010    -0.2706 H       
  71 H71           -0.0781    11.5679    -3.6394 H       
  72 H72            0.3986    10.3964    -4.8918 H       
  73 H73           -1.3011    10.5037    -4.3743 H       
  74 H74           -4.1872    -0.2838    -1.4505 H       
  75 H75           -5.8987     0.2038    -1.4881 H       
  76 H76           -4.6839     1.1500    -2.3809 H       
  77 H77           -4.8339     0.8577     0.6537 H       
  78 H78           -6.6330     2.2773    -0.2071 H       
  79 H79           -4.2730     3.9335     0.7950 H       
  80 H80           -5.9828     4.4256     0.8469 H       
  81 H81           -5.4248     3.0425     1.8186 H       
  82 H82           -4.5504     3.6809    -1.6638 H       
@<TRIPOS>BOND
   1    1    2 1
   2    1    5 1
   3    1   37 1
   4    2    3 2
   5    2    6 1
   6    3    4 1
   7    3   38 1
   8    4    5 2
   9    4   39 1
  10    5    9 1
  11    6    7 2
  12    6    8 am
  13    8   33 1
  14    8   40 1
  15    9   10 ar
  16    9   14 ar
  17   10   11 ar
  18   10   41 1
  19   11   12 ar
  20   11   26 1
  21   12   13 ar
  22   12   42 1
  23   13   14 ar
  24   13   15 1
  25   14   43 1
  26   15   16 1
  27   16   18 1
  28   16   21 1
  29   16   24 1
  30   17   18 1
  31   17   44 1
  32   17   45 1
  33   17   46 1
  34   18   19 1
  35   18   47 1
  36   19   48 1
  37   19   49 1
  38   19   50 1
  39   20   21 1
  40   20   51 1
  41   20   52 1
  42   20   53 1
  43   21   22 1
  44   21   54 1
  45   22   55 1
  46   22   56 1
  47   22   57 1
  48   23   24 1
  49   23   58 1
  50   23   59 1
  51   23   60 1
  52   24   25 1
  53   24   61 1
  54   25   62 1
  55   25   63 1
  56   25   64 1
  57   26   28 1
  58   27   28 1
  59   27   30 1
  60   27   65 1
  61   27   66 1
  62   28   29 1
  63   28   67 1
  64   29   68 1
  65   29   69 1
  66   29   70 1
  67   30   31 1
  68   31   71 1
  69   31   72 1
  70   31   73 1
  71   32   33 1
  72   32   74 1
  73   32   75 1
  74   32   76 1
  75   33   34 1
  76   33   77 1
  77   34   35 1
  78   34   36 1
  79   34   78 1
  80   35   79 1
  81   35   80 1
  82   35   81 1
  83   36   82 1

#	End of record

