#	Name: ASD01880083
#	Creating user name:	WinNT
#	Creation time:	15. 06. 2019 19:40

#	Modifying user name:	WinNT
#	Modification time:	15. 06. 2019 19:40

#	Program:	/corina/corina34_cracker 3.40 0067  02.08.2006

@<TRIPOS>MOLECULE
ASD01880083
  51   52    0    0    0
SMALL
NO_CHARGES


@<TRIPOS>ATOM
   1 C1            -0.0302     1.3443    -0.1539 C.ar    
   2 C2            -0.0013    -0.0370    -0.1779 C.ar    
   3 N3             1.1452    -0.6883    -0.1558 N.ar    
   4 C4             2.3013    -0.0558    -0.1107 C.ar    
   5 C5             2.3509     1.3254    -0.0849 C.ar    
   6 C6             1.1659     2.0444    -0.1065 C.ar    
   7 C7             3.6765     2.0404    -0.0329 C.3     
   8 N8             4.1470     2.2964    -1.3965 N.am    
   9 C9             3.7128     3.4324    -2.0833 C.ar    
  10 S10            5.1937     1.2389    -2.1234 S.o2    
  11 C11            4.1186     0.0426    -2.9622 C.3     
  12 O12            5.8916     2.0334    -3.0727 O.2     
  13 O13            5.8768     0.6221    -1.0408 O.2     
  14 C14            3.2910     4.5515    -1.3789 C.ar    
  15 C15            2.8608     5.6769    -2.0642 C.ar    
  16 C16            2.8527     5.6825    -3.4519 C.ar    
  17 C17            3.2731     4.5673    -4.1519 C.ar    
  18 C18            3.7080     3.4459    -3.4729 C.ar    
  19 O19            2.4467     6.7741    -1.3775 O.3     
  20 C20            2.0995     7.9277    -2.1461 C.3     
  21 C21            0.9641     8.6812    -1.4505 C.3     
  22 C22           -0.2935     7.8100    -1.4377 C.3     
  23 C23            3.3187     8.8437    -2.2701 C.3     
  24 C24            4.4098     8.1345    -3.0748 C.3     
  25 C25            4.9670    -0.8724    -3.8475 C.3     
  26 F26            5.8967    -1.5556    -3.0563 F       
  27 F27            4.1379    -1.7950    -4.4944 F       
  28 F28            5.6422    -0.1033    -4.8014 F       
  29 H29           -0.9722     1.8721    -0.1763 H       
  30 H30           -0.9285    -0.5896    -0.2148 H       
  31 H31            3.2199    -0.6233    -0.0934 H       
  32 H32            1.1741     3.1242    -0.0872 H       
  33 H33            3.5583     2.9870     0.4944 H       
  34 H34            4.4034     1.4205     0.4919 H       
  35 H35            3.5925    -0.5566    -2.2191 H       
  36 H36            3.3942     0.5749    -3.5787 H       
  37 H37            3.2976     4.5452    -0.2989 H       
  38 H38            2.5171     6.5594    -3.9857 H       
  39 H39            3.2655     4.5743    -5.2318 H       
  40 H40            4.0363     2.5759    -4.0222 H       
  41 H41            1.7751     7.6182    -3.1396 H       
  42 H42            1.2560     8.9131    -0.4262 H       
  43 H43            0.7594     9.6069    -1.9884 H       
  44 H44           -1.1024     8.3468    -0.9421 H       
  45 H45           -0.5853     7.5781    -2.4620 H       
  46 H46           -0.0887     6.8843    -0.8998 H       
  47 H47            3.0317     9.7637    -2.7794 H       
  48 H48            3.6971     9.0816    -1.2760 H       
  49 H49            5.2784     8.7870    -3.1632 H       
  50 H50            4.6968     7.2145    -2.5656 H       
  51 H51            4.0314     7.8966    -4.0690 H       
@<TRIPOS>BOND
   1    1    2 ar
   2    1    6 ar
   3    1   29 1
   4    2    3 ar
   5    2   30 1
   6    3    4 ar
   7    4    5 ar
   8    4   31 1
   9    5    6 ar
  10    5    7 1
  11    6   32 1
  12    7    8 1
  13    7   33 1
  14    7   34 1
  15    8    9 1
  16    8   10 am
  17    9   14 ar
  18    9   18 ar
  19   10   11 1
  20   10   12 2
  21   10   13 2
  22   11   25 1
  23   11   35 1
  24   11   36 1
  25   14   15 ar
  26   14   37 1
  27   15   16 ar
  28   15   19 1
  29   16   17 ar
  30   16   38 1
  31   17   18 ar
  32   17   39 1
  33   18   40 1
  34   19   20 1
  35   20   21 1
  36   20   23 1
  37   20   41 1
  38   21   22 1
  39   21   42 1
  40   21   43 1
  41   22   44 1
  42   22   45 1
  43   22   46 1
  44   23   24 1
  45   23   47 1
  46   23   48 1
  47   24   49 1
  48   24   50 1
  49   24   51 1
  50   25   26 1
  51   25   27 1
  52   25   28 1

#	End of record

