#	Name: ASD05380020
#	Creating user name:	WinNT
#	Creation time:	15. 06. 2019 20:59

#	Modifying user name:	WinNT
#	Modification time:	15. 06. 2019 20:59

#	Program:	/corina/corina34_cracker 3.40 0067  02.08.2006

@<TRIPOS>MOLECULE
ASD05380020
  65   70    0    0    0
SMALL
NO_CHARGES


@<TRIPOS>ATOM
   1 C1             0.0225     1.7593    -0.1388 C.ar    
   2 C2             0.2195     0.3605    -0.1714 C.ar    
   3 C3             1.1060     2.6205    -0.2969 C.ar    
   4 C4             2.3671     2.0978    -0.4848 C.ar    
   5 C5             2.5642     0.7238    -0.5179 C.ar    
   6 C6             1.5068    -0.1447    -0.3627 C.ar    
   7 C7             0.9004     4.1131    -0.2631 C.3     
   8 N8            -0.8503    -0.4587    -0.0147 N.2     
   9 C9            -2.0473     0.0114     0.1640 C.2     
  10 N10           -2.3291     1.3417     0.2091 N.am    
  11 C11           -1.3440     2.2594     0.0709 C.2     
  12 C12           -3.6497     1.7651     0.4055 C.ar    
  13 C13           -4.5934     1.5890    -0.5978 C.ar    
  14 C14           -4.0192     2.3568     1.6062 C.ar    
  15 C15           -5.3223     2.7729     1.7970 C.ar    
  16 C16           -6.2586     2.6004     0.7942 C.ar    
  17 C17           -5.8948     2.0072    -0.4008 C.ar    
  18 C18           -3.1823    -0.9661     0.3295 C.3     
  19 N19           -2.9224    -2.1580    -0.4818 N.pl3   
  20 C20           -1.7899    -2.9186    -0.2509 C.ar    
  21 N21           -0.9288    -2.5811     0.7026 N.ar    
  22 O22           -1.5816     3.4527     0.1092 O.2     
  23 C23           -1.5289    -4.0682    -1.0163 C.ar    
  24 C24           -0.3644    -4.8030    -0.7385 C.ar    
  25 N25            0.4459    -4.3905     0.2311 N.ar    
  26 C26            0.1596    -3.3048     0.9312 C.ar    
  27 N27           -2.1654    -4.6979    -2.0344 N.2     
  28 C28           -1.4822    -5.7463    -2.3897 C.2     
  29 N29           -0.3612    -5.8548    -1.6194 N.pl3   
  30 C30           -3.2998    -1.3668     1.8014 C.3     
  31 O31           -4.4462    -2.2015     1.9778 O.3     
  32 C32           -4.6486    -2.6339     3.3246 C.3     
  33 C33           -5.8779    -3.5029     3.3939 C.ar    
  34 C34           -5.7692    -4.8695     3.2158 C.ar    
  35 C35           -6.8968    -5.6666     3.2793 C.ar    
  36 C36           -8.1330    -5.0973     3.5212 C.ar    
  37 C37           -8.2415    -3.7308     3.7001 C.ar    
  38 C38           -7.1133    -2.9342     3.6410 C.ar    
  39 N39            1.0262    -2.9098     1.9371 N.pl3   
  40 H40            3.2093     2.7625    -0.6077 H       
  41 H41            3.5592     0.3312    -0.6669 H       
  42 H42            1.6725    -1.2115    -0.3895 H       
  43 H43            0.8844     4.4543     0.7719 H       
  44 H44            1.7152     4.6042    -0.7951 H       
  45 H45           -0.0471     4.3602    -0.7419 H       
  46 H46           -4.3098     1.1258    -1.5313 H       
  47 H47           -3.2886     2.4911     2.3901 H       
  48 H48           -5.6104     3.2331     2.7306 H       
  49 H49           -7.2771     2.9260     0.9461 H       
  50 H50           -6.6283     1.8743    -1.1824 H       
  51 H51           -4.1128    -0.5010     0.0041 H       
  52 H52           -3.5443    -2.4140    -1.1808 H       
  53 H53           -1.7611    -6.4301    -3.1778 H       
  54 H54            0.3143    -6.5480    -1.6832 H       
  55 H55           -2.4045    -1.9107     2.1025 H       
  56 H56           -3.4044    -0.4716     2.4144 H       
  57 H57           -3.7813    -3.2042     3.6574 H       
  58 H58           -4.7812    -1.7650     3.9692 H       
  59 H59           -4.8033    -5.3143     3.0269 H       
  60 H60           -6.8119    -6.7342     3.1395 H       
  61 H61           -9.0140    -5.7200     3.5701 H       
  62 H62           -9.2074    -3.2860     3.8888 H       
  63 H63           -7.1981    -1.8667     3.7808 H       
  64 H64            0.8326    -2.1163     2.4602 H       
  65 H65            1.8268    -3.4268     2.1183 H       
@<TRIPOS>BOND
   1    1    2 ar
   2    1    3 ar
   3    1   11 1
   4    2    8 1
   5    2    6 ar
   6    3    4 ar
   7    3    7 1
   8    4    5 ar
   9    4   40 1
  10    5    6 ar
  11    5   41 1
  12    6   42 1
  13    7   43 1
  14    7   44 1
  15    7   45 1
  16    8    9 2
  17    9   10 1
  18    9   18 1
  19   10   11 am
  20   10   12 1
  21   11   22 2
  22   12   13 ar
  23   12   14 ar
  24   13   17 ar
  25   13   46 1
  26   14   15 ar
  27   14   47 1
  28   15   16 ar
  29   15   48 1
  30   16   17 ar
  31   16   49 1
  32   17   50 1
  33   18   19 1
  34   18   30 1
  35   18   51 1
  36   19   20 1
  37   19   52 1
  38   20   21 ar
  39   20   23 ar
  40   21   26 ar
  41   23   24 ar
  42   23   27 1
  43   24   25 ar
  44   24   29 1
  45   25   26 ar
  46   26   39 1
  47   27   28 2
  48   28   29 1
  49   28   53 1
  50   29   54 1
  51   30   31 1
  52   30   55 1
  53   30   56 1
  54   31   32 1
  55   32   33 1
  56   32   57 1
  57   32   58 1
  58   33   34 ar
  59   33   38 ar
  60   34   35 ar
  61   34   59 1
  62   35   36 ar
  63   35   60 1
  64   36   37 ar
  65   36   61 1
  66   37   38 ar
  67   37   62 1
  68   38   63 1
  69   39   64 1
  70   39   65 1

#	End of record

