#	Name: ASD01913368
#	Creating user name:	WinNT
#	Creation time:	15. 06. 2019 20:01

#	Modifying user name:	WinNT
#	Modification time:	15. 06. 2019 20:01

#	Program:	/corina/corina34_cracker 3.40 0067  02.08.2006

@<TRIPOS>MOLECULE
ASD01913368
  39   41    0    0    0
SMALL
NO_CHARGES


@<TRIPOS>ATOM
   1 C1            -0.0166     1.3732     0.0096 C.2     
   2 C2             0.0021    -0.0041     0.0020 C.2     
   3 C3             1.2408    -0.6894    -0.0135 C.2     
   4 C4             2.3981     0.0212    -0.0207 C.2     
   5 C5             2.3511     1.4286    -0.0127 C.2     
   6 N6             1.1465     2.0734     0.0022 N.pl3   
   7 N7             3.2991     2.3596    -0.0167 N.2     
   8 C8             2.7438     3.5629    -0.0049 C.2     
   9 N9             1.4368     3.4454     0.0069 N.2     
  10 C10           -1.2265    -0.7398     0.0102 C.1     
  11 C11           -2.2337    -1.3429     0.0170 C.1     
  12 C12           -3.4622    -2.0786     0.0252 C.ar    
  13 C13           -3.4439    -3.4758     0.0175 C.ar    
  14 C14           -4.6311    -4.1777     0.0255 C.ar    
  15 C15           -5.8643    -2.1180     0.0545 C.ar    
  16 C16           -4.6851    -1.4028     0.0468 C.ar    
  17 C17           -5.8384    -3.5016     0.0411 C.ar    
  18 C18            3.4983     4.8674    -0.0051 C.3     
  19 C19            5.0022     4.5867    -0.0216 C.3     
  20 C20            3.1169     5.6770    -1.2461 C.3     
  21 C21            3.1417     5.6630     1.2522 C.3     
  22 O22            5.7177     5.8237    -0.0218 O.3     
  23 H23           -0.9604     1.8982     0.0169 H       
  24 H24            1.2653    -1.7691    -0.0191 H       
  25 H25            3.3493    -0.4902    -0.0321 H       
  26 H26           -2.5024    -4.0048     0.0051 H       
  27 H27           -4.6185    -5.2576     0.0192 H       
  28 H28           -6.8102    -1.5971     0.0712 H       
  29 H29           -4.7068    -0.3231     0.0576 H       
  30 H30           -6.7650    -4.0564     0.0472 H       
  31 H31            5.2739     4.0100     0.8625 H       
  32 H32            5.2563     4.0199    -0.9173 H       
  33 H33            2.0455     5.8769    -1.2344 H       
  34 H34            3.6627     6.6205    -1.2463 H       
  35 H35            3.3710     5.1102    -2.1419 H       
  36 H36            3.4134     5.0862     2.1363 H       
  37 H37            3.6874     6.6065     1.2521 H       
  38 H38            2.0703     5.8629     1.2639 H       
  39 H39            6.6792     5.7219    -0.0319 H       
@<TRIPOS>BOND
   1    1    2 2
   2    1    6 1
   3    1   23 1
   4    2    3 1
   5    2   10 1
   6    3    4 2
   7    3   24 1
   8    4    5 1
   9    4   25 1
  10    5    6 1
  11    5    7 2
  12    6    9 1
  13    7    8 1
  14    8    9 2
  15    8   18 1
  16   10   11 3
  17   11   12 1
  18   12   13 ar
  19   12   16 ar
  20   13   14 ar
  21   13   26 1
  22   14   17 ar
  23   14   27 1
  24   15   16 ar
  25   15   17 ar
  26   15   28 1
  27   16   29 1
  28   17   30 1
  29   18   19 1
  30   18   20 1
  31   18   21 1
  32   19   22 1
  33   19   31 1
  34   19   32 1
  35   20   33 1
  36   20   34 1
  37   20   35 1
  38   21   36 1
  39   21   37 1
  40   21   38 1
  41   22   39 1

#	End of record

