#	Name: ASD03082309
#	Creating user name:	WinNT
#	Creation time:	15. 06. 2019 20:27

#	Modifying user name:	WinNT
#	Modification time:	15. 06. 2019 20:27

#	Program:	/corina/corina34_cracker 3.40 0067  02.08.2006

@<TRIPOS>MOLECULE
ASD03082309
  49   52    0    0    0
SMALL
NO_CHARGES


@<TRIPOS>ATOM
   1 N1             0.0394     1.5306    -0.1492 N.pl3   
   2 N2             0.0300     0.1269    -0.1856 N.2     
   3 C3             1.2570    -0.2709     0.0593 C.2     
   4 N4             2.0323     0.7989     0.2465 N.2     
   5 C5             1.3121     1.8965     0.1240 C.2     
   6 N6             1.6822    -1.5997     0.1153 N.pl3   
   7 C7             3.0398    -1.8930     0.2679 C.ar    
   8 C8             3.4319    -3.0966     0.8402 C.ar    
   9 C9             4.7755    -3.3834     0.9895 C.ar    
  10 C10            5.7295    -2.4725     0.5695 C.ar    
  11 C11            5.3416    -1.2741    -0.0003 C.ar    
  12 C12            4.0003    -0.9841    -0.1575 C.ar    
  13 C13            1.8086     3.2828     0.2611 C.ar    
  14 C14           -1.1021     2.4220    -0.3698 C.3     
  15 C15            3.1715     3.5532     0.1363 C.ar    
  16 C16            3.6332     4.8516     0.2650 C.ar    
  17 C17            2.7368     5.8861     0.5155 C.ar    
  18 C18            1.3802     5.6156     0.6408 C.ar    
  19 C19            0.9143     4.3248     0.5099 C.ar    
  20 C20           -1.8032     2.6739     0.9402 C.2     
  21 N21           -2.8893     3.4709     0.9809 N.am    
  22 C22           -3.5709     3.7157     2.2544 C.3     
  23 O23           -1.3900     2.1595     1.9579 O.2     
  24 C24           -3.3883     4.0923    -0.2483 C.3     
  25 Cl25           5.2672    -4.8867     1.7050 Cl      
  26 O26            4.9669     5.0987     0.1485 O.3     
  27 C27            5.3516     6.4573    -0.0882 C.3     
  28 C28            4.5710     7.3539     0.8823 C.3     
  29 O29            3.1727     7.1695     0.6369 O.3     
  30 H30            1.0351    -2.3192     0.0484 H       
  31 H31            2.6876    -3.8072     1.1682 H       
  32 H32            6.7790    -2.6984     0.6874 H       
  33 H33            6.0884    -0.5654    -0.3266 H       
  34 H34            3.6985    -0.0495    -0.6068 H       
  35 H35           -0.7501     3.3680    -0.7813 H       
  36 H36           -1.7962     1.9571    -1.0698 H       
  37 H37            3.8660     2.7497    -0.0601 H       
  38 H38            0.6872     6.4203     0.8377 H       
  39 H39           -0.1414     4.1190     0.6077 H       
  40 H40           -3.1359     4.5910     2.7368 H       
  41 H41           -4.6310     3.8909     2.0713 H       
  42 H42           -3.4528     2.8473     2.9026 H       
  43 H43           -4.1161     3.4318    -0.7198 H       
  44 H44           -3.8633     5.0434    -0.0077 H       
  45 H45           -2.5570     4.2640    -0.9320 H       
  46 H46            6.4216     6.5719     0.0853 H       
  47 H47            5.1137     6.7330    -1.1155 H       
  48 H48            4.8039     7.0738     1.9096 H       
  49 H49            4.8391     8.3971     0.7154 H       
@<TRIPOS>BOND
   1    1    2 1
   2    1    5 1
   3    1   14 1
   4    2    3 2
   5    3    4 1
   6    3    6 1
   7    4    5 2
   8    5   13 1
   9    6    7 1
  10    6   30 1
  11    7    8 ar
  12    7   12 ar
  13    8    9 ar
  14    8   31 1
  15    9   10 ar
  16    9   25 1
  17   10   11 ar
  18   10   32 1
  19   11   12 ar
  20   11   33 1
  21   12   34 1
  22   13   15 ar
  23   13   19 ar
  24   14   20 1
  25   14   35 1
  26   14   36 1
  27   15   16 ar
  28   15   37 1
  29   16   17 ar
  30   16   26 1
  31   17   18 ar
  32   17   29 1
  33   18   19 ar
  34   18   38 1
  35   19   39 1
  36   20   21 am
  37   20   23 2
  38   21   22 1
  39   21   24 1
  40   22   40 1
  41   22   41 1
  42   22   42 1
  43   24   43 1
  44   24   44 1
  45   24   45 1
  46   26   27 1
  47   27   28 1
  48   27   46 1
  49   27   47 1
  50   28   29 1
  51   28   48 1
  52   28   49 1

#	End of record

