#	Name: ASD03330541
#	Creating user name:	WinNT
#	Creation time:	15. 06. 2019 20:37

#	Modifying user name:	WinNT
#	Modification time:	15. 06. 2019 20:37

#	Program:	/corina/corina34_cracker 3.40 0067  02.08.2006

@<TRIPOS>MOLECULE
ASD03330541
  57   59    0    0    0
SMALL
NO_CHARGES


@<TRIPOS>ATOM
   1 C1            -0.2019     1.9808     1.0554 C.2     
   2 N2            -0.4135     0.6454     1.2130 N.pl3   
   3 C3             1.1426     2.1648     0.9545 C.2     
   4 N4             1.7333     0.9445     1.0337 N.2     
   5 C5             0.8036     0.0294     1.1831 C.2     
   6 C6             1.0366    -1.4254     1.3002 C.2     
   7 C7             1.8332     3.4555     0.7883 C.2     
   8 O8             1.1900     4.4861     0.7297 O.2     
   9 C9             3.8642     4.7777     0.5361 C.3     
  10 N10            3.1775     3.4942     0.7013 N.am    
  11 C11            3.9040     5.1474    -0.9481 C.3     
  12 C12            2.4799     5.1678    -1.5069 C.3     
  13 C13            4.5360     6.5311    -1.1122 C.3     
  14 C14            4.7358     4.1132    -1.7092 C.3     
  15 C15            5.2714     4.6662     1.0638 C.2     
  16 N16            6.0043     5.7785     1.2690 N.am    
  17 O17            5.7443     3.5755     1.3040 O.2     
  18 C18            7.3971     5.6671     1.7092 C.3     
  19 C19           -1.7209     0.0083     1.3950 C.3     
  20 C20           -2.6989     0.5620     0.3541 C.3     
  21 C21           -3.3659     1.8235     0.8925 C.3     
  22 N22           -2.4482     2.5827     1.7441 N.3     
  23 C23           -1.2722     3.0393     0.9885 C.3     
  24 C24           -3.1356     3.7133     2.3821 C.3     
  25 C25            2.1344    -2.0668     0.7207 C.2     
  26 C26            2.1653    -3.3794     0.9401 C.2     
  27 S27            0.7770    -3.8540     1.9071 S.3     
  28 C28            0.2125    -2.2454     1.9791 C.2     
  29 H29            3.3290     5.5499     1.0887 H       
  30 H30            3.6905     2.6722     0.7481 H       
  31 H31            1.8872     5.9045    -0.9647 H       
  32 H32            2.5082     5.4312    -2.5642 H       
  33 H33            2.0296     4.1820    -1.3900 H       
  34 H34            5.5060     6.5487    -0.6151 H       
  35 H35            4.6671     6.7472    -2.1724 H       
  36 H36            3.8853     7.2830    -0.6658 H       
  37 H37            4.2856     3.1275    -1.5923 H       
  38 H38            4.7642     4.3767    -2.7665 H       
  39 H39            5.7504     4.0988    -1.3111 H       
  40 H40            5.6095     6.6528     1.1251 H       
  41 H41            7.4352     5.1464     2.6661 H       
  42 H42            7.9687     5.1080     0.9684 H       
  43 H43            7.8237     6.6639     1.8208 H       
  44 H44           -1.6222    -1.0694     1.2651 H       
  45 H45           -2.0945     0.2229     2.3962 H       
  46 H46           -2.1572     0.8008    -0.5612 H       
  47 H47           -3.4608    -0.1870     0.1382 H       
  48 H48           -3.6769     2.4487     0.0555 H       
  49 H49           -4.2442     1.5433     1.4740 H       
  50 H50           -0.8966     3.9655     1.4236 H       
  51 H51           -1.5510     3.2106    -0.0512 H       
  52 H52           -3.9550     3.3405     2.9966 H       
  53 H53           -2.4311     4.2601     3.0088 H       
  54 H54           -3.5308     4.3784     1.6142 H       
  55 H55            2.8875    -1.5462     0.1478 H       
  56 H56            2.9289    -4.0517     0.5778 H       
  57 H57           -0.6835    -1.9300     2.4930 H       
@<TRIPOS>BOND
   1    1    2 1
   2    1    3 2
   3    1   23 1
   4    2   19 1
   5    2    5 1
   6    3    4 1
   7    3    7 1
   8    4    5 2
   9    5    6 1
  10    6   25 1
  11    6   28 2
  12    7    8 2
  13    7   10 am
  14    9   10 1
  15    9   11 1
  16    9   15 1
  17    9   29 1
  18   10   30 1
  19   11   12 1
  20   11   13 1
  21   11   14 1
  22   12   31 1
  23   12   32 1
  24   12   33 1
  25   13   34 1
  26   13   35 1
  27   13   36 1
  28   14   37 1
  29   14   38 1
  30   14   39 1
  31   15   16 am
  32   15   17 2
  33   16   18 1
  34   16   40 1
  35   18   41 1
  36   18   42 1
  37   18   43 1
  38   19   20 1
  39   19   44 1
  40   19   45 1
  41   20   21 1
  42   20   46 1
  43   20   47 1
  44   21   22 1
  45   21   48 1
  46   21   49 1
  47   22   23 1
  48   22   24 1
  49   23   50 1
  50   23   51 1
  51   24   52 1
  52   24   53 1
  53   24   54 1
  54   25   26 2
  55   25   55 1
  56   26   27 1
  57   26   56 1
  58   27   28 1
  59   28   57 1

#	End of record

