#	Name: ASD02198697
#	Creating user name:	WinNT
#	Creation time:	15. 06. 2019 20:20

#	Modifying user name:	WinNT
#	Modification time:	15. 06. 2019 20:20

#	Program:	/corina/corina34_cracker 3.40 0067  02.08.2006

@<TRIPOS>MOLECULE
ASD02198697
  50   54    0    0    0
SMALL
NO_CHARGES


@<TRIPOS>ATOM
   1 F1             2.2529    -1.7091     2.4714 F       
   2 C2            -0.0432     1.5015    -0.1153 C.2     
   3 C3            -0.0730     0.1618     0.0972 C.2     
   4 N4             1.0714    -0.5398     0.2600 N.pl3   
   5 N5             2.2359    -0.0050     0.2265 N.2     
   6 C6             2.4074     1.2844     0.0280 C.2     
   7 C7             1.2216     2.1355    -0.1606 C.2     
   8 C8             0.9800    -1.9182     0.4764 C.ar    
   9 C9             1.5809    -2.4878     1.5955 C.ar    
  10 C10            1.4906    -3.8490     1.8100 C.ar    
  11 C11            0.7976    -4.6509     0.9054 C.ar    
  12 C12            0.1969    -4.0774    -0.2144 C.ar    
  13 C13            0.2843    -2.7175    -0.4230 C.ar    
  14 C14            3.7644     1.8668    -0.0041 C.2     
  15 N15            4.3067     2.6066    -1.0171 N.pl3   
  16 N16            5.6083     2.9587    -0.6385 N.2     
  17 C17            5.8515     2.4597     0.5471 C.2     
  18 C18            4.7196     1.7715     0.9841 C.2     
  19 C19            3.6745     2.9504    -2.2187 C.ar    
  20 C20            3.8081     4.2334    -2.7330 C.ar    
  21 C21            3.1839     4.5692    -3.9183 C.ar    
  22 C22            2.4265     3.6293    -4.5930 C.ar    
  23 C23            2.2911     2.3510    -4.0833 C.ar    
  24 C24            2.9175     2.0073    -2.9013 C.ar    
  25 O25            1.3246     3.3386    -0.3488 O.2     
  26 C26            0.6995    -6.1141     1.1334 C.2     
  27 C27            1.7072    -7.0368     1.1411 C.2     
  28 C28           -0.4658    -6.8862     1.4017 C.2     
  29 N29           -0.0660    -8.1168     1.5294 N.2     
  30 O30            1.1298    -8.2204     1.3889 O.3     
  31 C31            3.1742    -6.7756     0.9160 C.3     
  32 C32           -1.8802    -6.3787     1.5152 C.3     
  33 H33           -0.9546     2.0651    -0.2498 H       
  34 H34           -1.0228    -0.3507     0.1371 H       
  35 H35            1.9569    -4.2916     2.6778 H       
  36 H36           -0.3402    -4.6980    -0.9164 H       
  37 H37           -0.1816    -2.2738    -1.2905 H       
  38 H38            6.7746     2.5662     1.0975 H       
  39 H39            4.6134     1.2520     1.9250 H       
  40 H40            4.3993     4.9681    -2.2064 H       
  41 H41            3.2871     5.5670    -4.3186 H       
  42 H42            1.9393     3.8943    -5.5197 H       
  43 H43            1.6986     1.6192    -4.6123 H       
  44 H44            2.8118     1.0087    -2.5039 H       
  45 H45            3.6562    -6.5641     1.8705 H       
  46 H46            3.6344    -7.6540     0.4634 H       
  47 H47            3.2932    -5.9200     0.2514 H       
  48 H48           -2.3552    -6.4045     0.5345 H       
  49 H49           -2.4385    -7.0105     2.2060 H       
  50 H50           -1.8699    -5.3542     1.8871 H       
@<TRIPOS>BOND
   1    1    9 1
   2    2    3 2
   3    2    7 1
   4    2   33 1
   5    3    4 1
   6    3   34 1
   7    4    5 1
   8    4    8 1
   9    5    6 2
  10    6    7 1
  11    6   14 1
  12    7   25 2
  13    8    9 ar
  14    8   13 ar
  15    9   10 ar
  16   10   11 ar
  17   10   35 1
  18   11   12 ar
  19   11   26 1
  20   12   13 ar
  21   12   36 1
  22   13   37 1
  23   14   15 1
  24   14   18 2
  25   15   16 1
  26   15   19 1
  27   16   17 2
  28   17   18 1
  29   17   38 1
  30   18   39 1
  31   19   20 ar
  32   19   24 ar
  33   20   21 ar
  34   20   40 1
  35   21   22 ar
  36   21   41 1
  37   22   23 ar
  38   22   42 1
  39   23   24 ar
  40   23   43 1
  41   24   44 1
  42   26   28 1
  43   26   27 2
  44   27   31 1
  45   27   30 1
  46   28   29 2
  47   28   32 1
  48   29   30 1
  49   31   45 1
  50   31   46 1
  51   31   47 1
  52   32   48 1
  53   32   49 1
  54   32   50 1

#	End of record

