#	Name: ASD05143048
#	Creating user name:	WinNT
#	Creation time:	15. 06. 2019 20:57

#	Modifying user name:	WinNT
#	Modification time:	15. 06. 2019 20:57

#	Program:	/corina/corina34_cracker 3.40 0067  02.08.2006

@<TRIPOS>MOLECULE
ASD05143048
 144  147    0    0    0
SMALL
NO_CHARGES


@<TRIPOS>ATOM
   1 C1            -3.2402     3.2803     8.1416 C.2     
   2 C2            -3.0170     2.4974     9.4098 C.3     
   3 N3            -2.2647     4.0762     7.6606 N.am    
   4 O4            -4.2958     3.1904     7.5512 O.2     
   5 C5            -2.4816     4.8373     6.4277 C.3     
   6 C6            -2.7723     3.8720     5.2768 C.3     
   7 C7            -3.6531     5.7675     6.6112 C.2     
   8 C8            -1.5362     3.0111     5.0088 C.3     
   9 C9            -1.8268     2.0457     3.8579 C.3     
  10 N10           -0.6432     1.2214     3.6013 N.pl3   
  11 C11           -0.6678     0.2747     2.6047 C.2     
  12 N12            0.4429    -0.4989     2.3638 N.pl3   
  13 N13           -1.7442     0.1105     1.8881 N.2     
  14 O14           -4.4627     5.5571     7.4894 O.2     
  15 N15           -3.8010     6.8331     5.7993 N.am    
  16 C16           -4.9398     7.7373     5.9776 C.3     
  17 C17           -4.4891     8.9791     6.7494 C.3     
  18 C18           -3.6588     8.5534     7.9618 C.3     
  19 C19           -2.2115     8.4284     7.5613 C.2     
  20 O20           -1.9009     7.8533     6.5397 O.2     
  21 N21           -1.2557     8.9753     8.3700 N.am    
  22 C22            0.1405     8.8026     7.9079 C.3     
  23 C23            0.4978     9.9672     6.9823 C.3     
  24 C24            1.6756     9.5670     6.0914 C.3     
  25 C25            2.6033    10.7687     5.9009 C.3     
  26 N26            3.1358    10.7459     4.5238 N.am    
  27 C27            3.7424    10.6880     6.8843 C.2     
  28 N28            3.5588    11.0766     8.1617 N.am    
  29 O29            4.8245    10.2734     6.5262 O.2     
  30 C30            2.4840    11.5121     3.6070 C.2     
  31 O31            1.5223    12.1751     3.9333 O.2     
  32 C32            2.9727    11.5267     2.1815 C.3     
  33 N33            1.9043    12.0875     1.3228 N.am    
  34 C34            4.2262    12.3977     2.0770 C.3     
  35 C35            1.2261    11.1770     0.5628 C.2     
  36 O36            1.5108     9.9990     0.6092 O.2     
  37 C37            0.1171    11.6642    -0.3339 C.3     
  38 N38           -0.8384    10.5602    -0.5535 N.am    
  39 C39           -0.6016    12.8394     0.3318 C.3     
  40 C40           -2.1596    10.8640    -0.4281 C.2     
  41 O41           -2.5075    11.9906    -0.1442 O.2     
  42 C42           -3.1835     9.7803    -0.6477 C.3     
  43 C43            4.7823    12.3120     0.6789 C.2     
  44 C44            4.3661    13.1126    -0.4750 C.ar    
  45 C45            5.1605    12.6826    -1.5533 C.ar    
  46 N46            5.9924    11.6946    -1.0763 N.pl3   
  47 C47            5.7570    11.4915     0.2562 C.2     
  48 C48            3.4184    14.1202    -0.6661 C.ar    
  49 C49            3.2675    14.6839    -1.9014 C.ar    
  50 C50            4.0487    14.2627    -2.9690 C.ar    
  51 C51            4.9901    13.2709    -2.8025 C.ar    
  52 N52           -4.2762     9.9534     0.3365 N.am    
  53 C53           -2.5305     8.4103    -0.4539 C.3     
  54 C54           -3.5383     7.3280    -0.7433 C.ar    
  55 C55           -4.1257     7.2468    -1.9916 C.ar    
  56 C56           -5.0508     6.2527    -2.2573 C.ar    
  57 C57           -5.3870     5.3406    -1.2731 C.ar    
  58 C58           -4.7988     5.4228    -0.0249 C.ar    
  59 C59           -3.8709     6.4129     0.2383 C.ar    
  60 C60           -5.4700     8.1497     4.6285 C.2     
  61 O61           -6.5788     7.8099     4.2732 O.2     
  62 C62           -1.2038    12.3817     1.6618 C.3     
  63 C63           -1.9440    13.5503     2.3155 C.3     
  64 N64           -2.5206    13.1120     3.5889 N.pl3   
  65 C65           -3.2365    13.9969     4.3601 C.2     
  66 N66           -3.4112    15.2930     3.9363 N.pl3   
  67 N67           -3.7495    13.6070     5.4931 N.2     
  68 N68           -4.6864     8.9086     3.8141 N.am    
  69 C69           -5.2595     9.2820     2.5055 C.3     
  70 O70           -6.6772    10.8584     3.6656 O.3     
  71 C71           -5.7771    10.7206     2.5642 C.3     
  72 C72           -4.1842     9.1746     1.4552 C.2     
  73 O73           -3.2539     8.4102     1.6002 O.2     
  74 Cl74          -5.7894     6.1504    -3.8250 Cl      
  75 C75           -4.5988    11.6795     2.7455 C.3     
  76 H76           -3.3329     3.0941    10.2655 H       
  77 H77           -3.5983     1.5760     9.3750 H       
  78 H78           -1.9585     2.2558     9.5062 H       
  79 H79           -1.4190     4.1451     8.1306 H       
  80 H80           -1.5887     5.4186     6.1977 H       
  81 H81           -3.6113     3.2297     5.5444 H       
  82 H82           -3.0209     4.4399     4.3803 H       
  83 H83           -0.6971     3.6534     4.7412 H       
  84 H84           -1.2876     2.4432     5.9054 H       
  85 H85           -2.6658     1.4035     4.1255 H       
  86 H86           -2.0754     2.6136     2.9614 H       
  87 H87            0.1578     1.3436     4.1345 H       
  88 H88            1.2439    -0.3768     2.8971 H       
  89 H89            0.4255    -1.1669     1.6607 H       
  90 H90           -1.7616    -0.5574     1.1850 H       
  91 H91           -3.1535     7.0013     5.0970 H       
  92 H92           -5.7247     7.2273     6.5362 H       
  93 H93           -3.8847     9.6114     6.0991 H       
  94 H94           -5.3642     9.5353     7.0856 H       
  95 H95           -3.7547     9.3017     8.7486 H       
  96 H96           -4.0185     7.5922     8.3291 H       
  97 H97           -1.4763     9.4444     9.1898 H       
  98 H98            0.8120     8.7985     8.7665 H       
  99 H99            0.2322     7.8622     7.3645 H       
 100 H100          -0.3620    10.2132     6.3592 H       
 101 H101           0.7735    10.8356     7.5806 H       
 102 H102           2.2272     8.7533     6.5622 H       
 103 H103           1.3022     9.2390     5.1212 H       
 104 H104           2.0444    11.6906     6.0613 H       
 105 H105           3.9098    10.2123     4.2849 H       
 106 H106           2.6934    11.4082     8.4481 H       
 107 H107           4.2920    11.0247     8.7946 H       
 108 H108           3.2026    10.5100     1.8629 H       
 109 H109           1.7004    13.0356     1.3013 H       
 110 H110           3.9694    13.4327     2.3030 H       
 111 H111           4.9738    12.0454     2.7876 H       
 112 H112           0.5335    11.9824    -1.2897 H       
 113 H113          -0.5401     9.6643    -0.7755 H       
 114 H114           0.1101    13.6448     0.5133 H       
 115 H115          -1.3962    13.1973    -0.3228 H       
 116 H116          -3.5858     9.8566    -1.6579 H       
 117 H117           6.6500    11.2165    -1.6052 H       
 118 H118           6.2735    10.7722     0.8745 H       
 119 H119           2.8066    14.4524     0.1596 H       
 120 H120           2.5344    15.4632    -2.0487 H       
 121 H121           3.9176    14.7177    -3.9396 H       
 122 H122           5.5932    12.9504    -3.6391 H       
 123 H123          -5.0063    10.5766     0.1968 H       
 124 H124          -1.6851     8.3112    -1.1349 H       
 125 H125          -2.1815     8.3163     0.5744 H       
 126 H126          -3.8630     7.9594    -2.7595 H       
 127 H127          -6.1092     4.5646    -1.4798 H       
 128 H128          -5.0613     4.7108     0.7436 H       
 129 H129          -3.4114     6.4765     1.2136 H       
 130 H130          -1.9020    11.5641     1.4822 H       
 131 H131          -0.4072    12.0406     2.3230 H       
 132 H132          -1.2458    14.3678     2.4950 H       
 133 H133          -2.7405    13.8914     1.6542 H       
 134 H134          -2.3973    12.1975     3.8880 H       
 135 H135          -3.0294    15.5832     3.0931 H       
 136 H136          -3.9163    15.9173     4.4804 H       
 137 H137          -4.2546    14.2313     6.0372 H       
 138 H138          -3.7970     9.1899     4.0801 H       
 139 H139          -6.0805     8.6081     2.2607 H       
 140 H140          -6.2797    10.6628     4.5252 H       
 141 H141          -6.2987    10.9571     1.6369 H       
 142 H142          -3.9555    11.6349     1.8666 H       
 143 H143          -4.9731    12.6955     2.8706 H       
 144 H144          -4.0282    11.3912     3.6283 H       
@<TRIPOS>BOND
   1    1    2 1
   2    1    3 am
   3    1    4 2
   4    2   76 1
   5    2   77 1
   6    2   78 1
   7    3    5 1
   8    3   79 1
   9    5    6 1
  10    5    7 1
  11    5   80 1
  12    6    8 1
  13    6   81 1
  14    6   82 1
  15    7   14 2
  16    7   15 am
  17    8    9 1
  18    8   83 1
  19    8   84 1
  20    9   10 1
  21    9   85 1
  22    9   86 1
  23   10   11 1
  24   10   87 1
  25   11   12 1
  26   11   13 2
  27   12   88 1
  28   12   89 1
  29   13   90 1
  30   15   16 1
  31   15   91 1
  32   16   17 1
  33   16   60 1
  34   16   92 1
  35   17   18 1
  36   17   93 1
  37   17   94 1
  38   18   19 1
  39   18   95 1
  40   18   96 1
  41   19   20 2
  42   19   21 am
  43   21   22 1
  44   21   97 1
  45   22   23 1
  46   22   98 1
  47   22   99 1
  48   23   24 1
  49   23  100 1
  50   23  101 1
  51   24   25 1
  52   24  102 1
  53   24  103 1
  54   25   26 1
  55   25   27 1
  56   25  104 1
  57   26   30 am
  58   26  105 1
  59   27   28 am
  60   27   29 2
  61   28  106 1
  62   28  107 1
  63   30   31 2
  64   30   32 1
  65   32   33 1
  66   32   34 1
  67   32  108 1
  68   33   35 am
  69   33  109 1
  70   34   43 1
  71   34  110 1
  72   34  111 1
  73   35   36 2
  74   35   37 1
  75   37   38 1
  76   37   39 1
  77   37  112 1
  78   38   40 am
  79   38  113 1
  80   39   62 1
  81   39  114 1
  82   39  115 1
  83   40   41 2
  84   40   42 1
  85   42   52 1
  86   42   53 1
  87   42  116 1
  88   43   44 1
  89   43   47 2
  90   44   45 ar
  91   44   48 ar
  92   45   46 1
  93   45   51 ar
  94   46   47 1
  95   46  117 1
  96   47  118 1
  97   48   49 ar
  98   48  119 1
  99   49   50 ar
 100   49  120 1
 101   50   51 ar
 102   50  121 1
 103   51  122 1
 104   52   72 am
 105   52  123 1
 106   53   54 1
 107   53  124 1
 108   53  125 1
 109   54   55 ar
 110   54   59 ar
 111   55   56 ar
 112   55  126 1
 113   56   57 ar
 114   56   74 1
 115   57   58 ar
 116   57  127 1
 117   58   59 ar
 118   58  128 1
 119   59  129 1
 120   60   61 2
 121   60   68 am
 122   62   63 1
 123   62  130 1
 124   62  131 1
 125   63   64 1
 126   63  132 1
 127   63  133 1
 128   64   65 1
 129   64  134 1
 130   65   66 1
 131   65   67 2
 132   66  135 1
 133   66  136 1
 134   67  137 1
 135   68   69 1
 136   68  138 1
 137   69   71 1
 138   69   72 1
 139   69  139 1
 140   70   71 1
 141   70  140 1
 142   71   75 1
 143   71  141 1
 144   72   73 2
 145   75  142 1
 146   75  143 1
 147   75  144 1

#	End of record

