#	Name: ASD07030077
#	Creating user name:	WinNT
#	Creation time:	15. 06. 2019 21:08

#	Modifying user name:	WinNT
#	Modification time:	15. 06. 2019 21:08

#	Program:	/corina/corina34_cracker 3.40 0067  02.08.2006

@<TRIPOS>MOLECULE
ASD07030077
  57   59    0    0    0
SMALL
NO_CHARGES


@<TRIPOS>ATOM
   1 N1            -0.0179     1.4702     0.0101 N.3     
   2 C2             0.0021    -0.0041     0.0020 C.3     
   3 C3             1.4820    -0.4413     0.0110 C.3     
   4 C4             2.2089     0.7978     0.5967 C.3     
   5 C5             1.3770     1.9600    -0.0006 C.3     
   6 N6             1.6723    -1.6126     0.8769 N.3     
   7 C7            -0.7682     1.9929    -1.1396 C.3     
   8 C8            -0.9813     3.4982    -0.9679 C.3     
   9 N9            -1.7316     4.0208    -2.1176 N.3     
  10 C10           -1.9554     5.4668    -1.9869 C.3     
  11 C11           -2.1713     6.2673    -3.2727 C.3     
  12 C12           -3.3474     6.0001    -2.3313 C.3     
  13 C13           -0.6143    10.2469    -3.4062 C.ar    
  14 C14           -0.1775     9.2941    -4.3242 C.ar    
  15 C15           -0.6834     8.0108    -4.2764 C.ar    
  16 C16           -1.6222     7.6700    -3.3196 C.ar    
  17 C17           -2.0594     8.6119    -2.4058 C.ar    
  18 C18           -1.5602     9.8981    -2.4444 C.ar    
  19 C19           -0.0695    11.6266    -3.4488 C.ar    
  20 C20           -0.5065    12.5786    -2.5309 C.ar    
  21 C21            0.0058    13.8647    -2.5758 C.ar    
  22 C22            0.9518    14.2022    -3.5341 C.ar    
  23 C23            1.3854    13.2579    -4.4454 C.ar    
  24 C24            0.8849    11.9718    -4.4035 C.ar    
  25 O25           -0.4181    14.7964    -1.6818 O.3     
  26 C26            0.1525    16.1024    -1.7862 C.3     
  27 H27           -0.5030    -0.3866     0.8889 H       
  28 H28           -0.4892    -0.3766    -0.8968 H       
  29 H29            1.8287    -0.6487    -1.0014 H       
  30 H30            2.1590     0.8012     1.6856 H       
  31 H31            3.2429     0.8417     0.2547 H       
  32 H32            1.6974     2.1707    -1.0209 H       
  33 H33            1.4709     2.8516     0.6194 H       
  34 H34            2.6388    -1.9023     0.8860 H       
  35 H35            1.3411    -1.4285     1.8121 H       
  36 H36           -0.2061     1.8076    -2.0549 H       
  37 H37           -1.7352     1.4935    -1.1997 H       
  38 H38           -1.5434     3.6835    -0.0526 H       
  39 H39           -0.0143     3.9975    -0.9077 H       
  40 H40           -1.2623     3.8045    -2.9842 H       
  41 H41           -1.4163     5.9546    -1.1748 H       
  42 H42           -2.1472     5.7211    -4.2157 H       
  43 H43           -4.0972     5.2781    -2.6550 H       
  44 H44           -3.7241     6.8389    -1.7459 H       
  45 H45            0.5552     9.5593    -5.0720 H       
  46 H46           -0.3458     7.2716    -4.9877 H       
  47 H47           -2.7928     8.3405    -1.6610 H       
  48 H48           -1.9019    10.6327    -1.7303 H       
  49 H49           -1.2430    12.3149    -1.7864 H       
  50 H50            1.3499    15.2056    -3.5678 H       
  51 H51            2.1210    13.5255    -5.1895 H       
  52 H52            1.2295    11.2347    -5.1137 H       
  53 H53            1.2325    16.0387    -1.6530 H       
  54 H54           -0.0685    16.5179    -2.7693 H       
  55 H55           -0.2712    16.7467    -1.0158 H       
  56 Cl56           8.2429    21.7467     6.8121 Cl      
  57 H57            8.2429    23.1167     6.8121 H       
@<TRIPOS>BOND
   1    1    2 1
   2    1    5 1
   3    1    7 1
   4    2    3 1
   5    2   27 1
   6    2   28 1
   7    3    4 1
   8    3    6 1
   9    3   29 1
  10    4    5 1
  11    4   30 1
  12    4   31 1
  13    5   32 1
  14    5   33 1
  15    6   34 1
  16    6   35 1
  17    7    8 1
  18    7   36 1
  19    7   37 1
  20    8    9 1
  21    8   38 1
  22    8   39 1
  23    9   10 1
  24    9   40 1
  25   10   11 1
  26   10   12 1
  27   10   41 1
  28   11   12 1
  29   11   16 1
  30   11   42 1
  31   12   43 1
  32   12   44 1
  33   13   14 ar
  34   13   18 ar
  35   13   19 1
  36   14   15 ar
  37   14   45 1
  38   15   16 ar
  39   15   46 1
  40   16   17 ar
  41   17   18 ar
  42   17   47 1
  43   18   48 1
  44   19   20 ar
  45   19   24 ar
  46   20   21 ar
  47   20   49 1
  48   21   22 ar
  49   21   25 1
  50   22   23 ar
  51   22   50 1
  52   23   24 ar
  53   23   51 1
  54   24   52 1
  55   25   26 1
  56   26   53 1
  57   26   54 1
  58   26   55 1
  59   56   57 1

#	End of record

