#	Name: ASD01811133
#	Creating user name:	WinNT
#	Creation time:	15. 06. 2019 19:26

#	Modifying user name:	WinNT
#	Modification time:	15. 06. 2019 19:26

#	Program:	/corina/corina34_cracker 3.40 0067  02.08.2006

@<TRIPOS>MOLECULE
ASD01811133
  37   39    0    0    0
SMALL
NO_CHARGES


@<TRIPOS>ATOM
   1 C1            -0.0169     1.3972     0.0097 C.2     
   2 C2             0.0021    -0.0041     0.0020 C.2     
   3 C3             1.1986    -0.6593    -0.0129 C.2     
   4 C4             2.3918     0.0821    -0.0204 C.2     
   5 N5             2.3438     1.4497    -0.0122 N.am    
   6 C6             1.1421     2.0936     0.0024 C.2     
   7 C7             3.6227    -0.5889    -0.0356 C.2     
   8 C8             4.7877     0.1218    -0.0430 C.2     
   9 C9             4.7345     1.5280    -0.0351 C.2     
  10 C10            3.4812     2.1736    -0.0189 C.2     
  11 O11            3.4258     3.3917    -0.0123 O.2     
  12 C12            5.9703     2.3140    -0.0422 C.2     
  13 O13            7.0487     1.7516    -0.0551 O.2     
  14 O14            5.9124     3.6618    -0.0346 O.3     
  15 C15            3.6593    -2.0954    -0.0434 C.3     
  16 C16            3.7816    -2.5876    -1.4625 C.ar    
  17 C17            5.0308    -2.7848    -2.0205 C.ar    
  18 C18            5.1430    -3.2362    -3.3223 C.ar    
  19 C19            4.0058    -3.4908    -4.0659 C.ar    
  20 C20            2.7566    -3.2945    -3.5076 C.ar    
  21 C21            2.6444    -2.8472    -2.2044 C.ar    
  22 C22            4.1281    -3.9820    -5.4853 C.3     
  23 F23            4.1631    -5.3805    -5.4935 F       
  24 F24            3.0288    -3.5387    -6.2285 F       
  25 F25            5.3058    -3.4827    -6.0518 F       
  26 H26           -0.9605     1.9226     0.0170 H       
  27 H27           -0.9233    -0.5609     0.0082 H       
  28 H28            1.2282    -1.7389    -0.0187 H       
  29 H29            1.1156     3.1733     0.0091 H       
  30 H30            5.7392    -0.3889    -0.0544 H       
  31 H31            6.7544     4.1373    -0.0398 H       
  32 H32            4.5154    -2.4410     0.5360 H       
  33 H33            2.7413    -2.4834     0.3979 H       
  34 H34            5.9193    -2.5858    -1.4395 H       
  35 H35            6.1190    -3.3896    -3.7584 H       
  36 H36            1.8681    -3.4931    -4.0887 H       
  37 H37            1.6684    -2.6938    -1.7683 H       
@<TRIPOS>BOND
   1    1    2 1
   2    1    6 2
   3    1   26 1
   4    2    3 2
   5    2   27 1
   6    3    4 1
   7    3   28 1
   8    4    5 1
   9    4    7 2
  10    5    6 1
  11    5   10 am
  12    6   29 1
  13    7    8 1
  14    7   15 1
  15    8    9 2
  16    8   30 1
  17    9   10 1
  18    9   12 1
  19   10   11 2
  20   12   13 2
  21   12   14 1
  22   14   31 1
  23   15   16 1
  24   15   32 1
  25   15   33 1
  26   16   17 ar
  27   16   21 ar
  28   17   18 ar
  29   17   34 1
  30   18   19 ar
  31   18   35 1
  32   19   20 ar
  33   19   22 1
  34   20   21 ar
  35   20   36 1
  36   21   37 1
  37   22   23 1
  38   22   24 1
  39   22   25 1

#	End of record

