#	Name: ASD01901300
#	Creating user name:	WinNT
#	Creation time:	15. 06. 2019 19:53

#	Modifying user name:	WinNT
#	Modification time:	15. 06. 2019 19:53

#	Program:	/corina/corina34_cracker 3.40 0067  02.08.2006

@<TRIPOS>MOLECULE
ASD01901300
  39   42    0    0    0
SMALL
NO_CHARGES


@<TRIPOS>ATOM
   1 C1             0.1198     1.1382     0.1265 C.ar    
   2 C2             0.2519    -0.2059    -0.0431 C.ar    
   3 C3             1.5003    -0.7797    -0.2772 C.ar    
   4 C4             2.6225    -0.0123    -0.3424 C.ar    
   5 C5             2.5266     1.3800    -0.1723 C.ar    
   6 C6             1.2559     1.9641     0.0656 C.ar    
   7 N7             1.1513     3.2875     0.2287 N.ar    
   8 N8             3.6151     2.1550    -0.2325 N.ar    
   9 C9             3.5011     3.4601    -0.0702 C.ar    
  10 C10            2.2317     4.0436     0.1670 C.ar    
  11 C11            2.1165     5.5095     0.3471 C.ar    
  12 C12           -1.2400     1.7394     0.3725 C.3     
  13 C13            4.7062     4.3190    -0.1368 C.ar    
  14 C14            1.0032     7.5827    -0.1304 C.ar    
  15 C15            1.1056     6.2174    -0.3024 C.ar    
  16 C16            3.0150     6.1863     1.1714 C.ar    
  17 C17            2.9024     7.5518     1.3356 C.ar    
  18 C18            1.9007     8.2492     0.6845 C.ar    
  19 C19            4.6793     5.5076    -0.8659 C.ar    
  20 C20            5.8703     3.9452     0.5340 C.ar    
  21 C21            6.9896     4.7494     0.4682 C.ar    
  22 C22            6.9586     5.9245    -0.2614 C.ar    
  23 C23            5.8050     6.3035    -0.9242 C.ar    
  24 H24           -0.6233    -0.8368     0.0048 H       
  25 H25            1.5783    -1.8489    -0.4084 H       
  26 H26            3.5832    -0.4713    -0.5238 H       
  27 H27           -1.4354     1.7696     1.4444 H       
  28 H28           -1.2680     2.7517    -0.0306 H       
  29 H29           -2.0001     1.1317    -0.1184 H       
  30 H30            0.2209     8.1320    -0.6331 H       
  31 H31            0.4046     5.6981    -0.9391 H       
  32 H32            3.7972     5.6428     1.6806 H       
  33 H33            3.5974     8.0769     1.9740 H       
  34 H34            1.8167     9.3179     0.8158 H       
  35 H35            3.7794     5.8043    -1.3841 H       
  36 H36            5.8956     3.0283     1.1042 H       
  37 H37            7.8916     4.4612     0.9875 H       
  38 H38            7.8371     6.5508    -0.3097 H       
  39 H39            5.7856     7.2239    -1.4888 H       
@<TRIPOS>BOND
   1    1    2 ar
   2    1    6 ar
   3    1   12 1
   4    2    3 ar
   5    2   24 1
   6    3    4 ar
   7    3   25 1
   8    4    5 ar
   9    4   26 1
  10    5    6 ar
  11    5    8 ar
  12    6    7 ar
  13    7   10 ar
  14    8    9 ar
  15    9   10 ar
  16    9   13 1
  17   10   11 1
  18   11   16 ar
  19   11   15 ar
  20   12   27 1
  21   12   28 1
  22   12   29 1
  23   13   20 ar
  24   13   19 ar
  25   14   15 ar
  26   14   18 ar
  27   14   30 1
  28   15   31 1
  29   16   17 ar
  30   16   32 1
  31   17   18 ar
  32   17   33 1
  33   18   34 1
  34   19   23 ar
  35   19   35 1
  36   20   21 ar
  37   20   36 1
  38   21   22 ar
  39   21   37 1
  40   22   23 ar
  41   22   38 1
  42   23   39 1

#	End of record

