#	Name: ASD02390017
#	Creating user name:	WinNT
#	Creation time:	15. 06. 2019 20:20

#	Modifying user name:	WinNT
#	Modification time:	15. 06. 2019 20:20

#	Program:	/corina/corina34_cracker 3.40 0067  02.08.2006

@<TRIPOS>MOLECULE
ASD02390017
  36   38    0    0    0
SMALL
NO_CHARGES


@<TRIPOS>ATOM
   1 F1             0.9199    -2.8235    -4.8187 F       
   2 F2             2.9177    -3.8883    -5.1257 F       
   3 F3             2.3308    -2.1471    -6.4834 F       
   4 O4            -0.0173     1.4259     0.0099 O.3     
   5 N5             2.1015     0.0829    -1.2528 N.3     
   6 N6             4.0729     0.0393    -2.5034 N.ar    
   7 N7             2.2592    -1.2263    -3.1819 N.ar    
   8 C8             0.7485    -0.4921    -1.2424 C.3     
   9 C9             2.0433     1.5519    -1.2438 C.3     
  10 C10            0.0021    -0.0041     0.0020 C.3     
  11 C11            1.2838     2.0194     0.0006 C.3     
  12 C12            2.8280    -0.3780    -2.3371 C.ar    
  13 C13            4.7981    -0.3857    -3.5357 C.ar    
  14 C14            2.9207    -1.6901    -4.2301 C.ar    
  15 C15            4.2251    -1.2804    -4.4430 C.ar    
  16 C16            6.1928     0.0838    -3.7201 C.ar    
  17 C17            2.2605    -2.6545    -5.1815 C.3     
  18 C18            6.7563     0.9768    -2.8104 C.ar    
  19 C19            6.9468    -0.3708    -4.8006 C.ar    
  20 C20            8.0547     1.4099    -2.9868 C.ar    
  21 C21            8.2443     0.0691    -4.9670 C.ar    
  22 C22            8.7966     0.9595    -4.0639 C.ar    
  23 H23            0.2115    -0.1755    -2.1365 H       
  24 H24            0.8155    -1.5799    -1.2234 H       
  25 H25            3.0554     1.9561    -1.2258 H       
  26 H26            1.5270     1.9012    -2.1379 H       
  27 H27            0.5095    -0.3661     0.8962 H       
  28 H28           -1.0202    -0.3818    -0.0153 H       
  29 H29            1.1886     3.1051    -0.0176 H       
  30 H30            1.8285     1.7162     0.8948 H       
  31 H31            4.7871    -1.6435    -5.2908 H       
  32 H32            6.1779     1.3294    -1.9693 H       
  33 H33            6.5167    -1.0662    -5.5061 H       
  34 H34            8.4923     2.1022    -2.2827 H       
  35 H35            8.8295    -0.2825    -5.8039 H       
  36 H36            9.8123     1.3014    -4.1982 H       
@<TRIPOS>BOND
   1    1   17 1
   2    2   17 1
   3    3   17 1
   4    4   10 1
   5    4   11 1
   6    5    8 1
   7    5    9 1
   8    5   12 1
   9    6   12 ar
  10    6   13 ar
  11    7   12 ar
  12    7   14 ar
  13    8   10 1
  14    8   23 1
  15    8   24 1
  16    9   11 1
  17    9   25 1
  18    9   26 1
  19   10   27 1
  20   10   28 1
  21   11   29 1
  22   11   30 1
  23   13   15 ar
  24   13   16 1
  25   14   15 ar
  26   14   17 1
  27   15   31 1
  28   16   18 ar
  29   16   19 ar
  30   18   20 ar
  31   18   32 1
  32   19   21 ar
  33   19   33 1
  34   20   22 ar
  35   20   34 1
  36   21   22 ar
  37   21   35 1
  38   22   36 1

#	End of record

