#	Name: ASD09740664
#	Creating user name:	WinNT
#	Creation time:	15. 06. 2019 21:23

#	Modifying user name:	WinNT
#	Modification time:	15. 06. 2019 21:23

#	Program:	/corina/corina34_cracker 3.40 0067  02.08.2006

@<TRIPOS>MOLECULE
ASD09740664
  33   34    0    0    0
SMALL
NO_CHARGES


@<TRIPOS>ATOM
   1 C1            -0.0187     1.5258     0.0104 C.3     
   2 C2             0.0021    -0.0041     0.0020 C.3     
   3 C3             0.7421    -0.5109     1.2415 C.3     
   4 S4            -1.6997    -0.6320     0.0149 S.o     
   5 O5            -1.6913    -2.0286    -0.2471 O.2     
   6 N6            -2.3418     0.0035    -1.3730 N.am    
   7 C7             0.7182    -0.4975    -1.2568 C.3     
   8 C8            -3.5705    -0.2454    -1.6901 C.2     
   9 C9            -4.5367    -1.0932    -0.8984 C.3     
  10 C10           -5.8466    -1.0689    -1.6978 C.3     
  11 C11           -5.5876    -0.2125    -2.9139 C.ar    
  12 C12           -6.4238     0.1384    -3.9593 C.ar    
  13 C13           -5.9612     0.9469    -4.9817 C.ar    
  14 C14           -4.6577     1.4104    -4.9654 C.ar    
  15 C15           -3.8148     1.0687    -3.9307 C.ar    
  16 C16           -4.2765     0.2551    -2.8870 C.ar    
  17 Br17          -8.2067    -0.4910    -3.9903 Br      
  18 H18            1.0039     1.9031     0.0027 H       
  19 H19           -0.5459     1.8868    -0.8726 H       
  20 H20           -0.5289     1.8773     0.9072 H       
  21 H21            0.2319    -0.1594     2.1383 H       
  22 H22            0.7568    -1.6008     1.2356 H       
  23 H23            1.7647    -0.1336     1.2338 H       
  24 H24            1.7408    -0.1202    -1.2645 H       
  25 H25            0.7330    -1.5874    -1.2628 H       
  26 H26            0.1910    -0.1364    -2.1398 H       
  27 H27           -4.1635    -2.1139    -0.8158 H       
  28 H28           -4.6907    -0.6652     0.0922 H       
  29 H29           -6.1175    -2.0797    -2.0028 H       
  30 H30           -6.6440    -0.6328    -1.0960 H       
  31 H31           -6.6189     1.2166    -5.7948 H       
  32 H32           -4.3001     2.0412    -5.7658 H       
  33 H33           -2.7977     1.4318    -3.9217 H       
@<TRIPOS>BOND
   1    1    2 1
   2    1   18 1
   3    1   19 1
   4    1   20 1
   5    2    3 1
   6    2    4 1
   7    2    7 1
   8    3   21 1
   9    3   22 1
  10    3   23 1
  11    4    5 2
  12    4    6 am
  13    6    8 2
  14    7   24 1
  15    7   25 1
  16    7   26 1
  17    8    9 1
  18    8   16 1
  19    9   10 1
  20    9   27 1
  21    9   28 1
  22   10   11 1
  23   10   29 1
  24   10   30 1
  25   11   12 ar
  26   11   16 ar
  27   12   13 ar
  28   12   17 1
  29   13   14 ar
  30   13   31 1
  31   14   15 ar
  32   14   32 1
  33   15   16 ar
  34   15   33 1

#	End of record

