#	Name: ASD01881444
#	Creating user name:	WinNT
#	Creation time:	15. 06. 2019 19:42

#	Modifying user name:	WinNT
#	Modification time:	15. 06. 2019 19:42

#	Program:	/corina/corina34_cracker 3.40 0067  02.08.2006

@<TRIPOS>MOLECULE
ASD01881444
  53   57    0    0    0
SMALL
NO_CHARGES


@<TRIPOS>ATOM
   1 C1            -0.4111     1.5705    -0.0617 C.3     
   2 C2             1.1421     9.9823     4.3853 C.ar    
   3 C3             1.3007     8.8844     3.5662 C.ar    
   4 C4            -0.0435    10.1635     5.0845 C.ar    
   5 C5            -1.0745     9.2392     4.9616 C.ar    
   6 C6            -0.9220     8.1389     4.1440 C.ar    
   7 C7             0.2686     7.9548     3.4402 C.ar    
   8 C8             0.4360     6.7745     2.5607 C.2     
   9 C9             0.5749     6.9359     1.1949 C.2     
  10 C10            0.4611     5.4700     3.1115 C.2     
  11 C11            0.6132     4.3989     2.3105 C.2     
  12 N12            0.7454     4.5486     0.9600 N.pl3   
  13 C13            0.7319     5.7973     0.3866 C.2     
  14 C14            0.9087     3.6699    -0.0675 C.2     
  15 N15            0.9802     4.3651    -1.1730 N.2     
  16 N16            0.8780     5.6221    -0.9179 N.2     
  17 C17            0.9924     2.1697     0.0483 C.3     
  18 Cl18          -2.5551     9.4696     5.8384 Cl      
  19 O19           -0.1964    11.2464     5.8905 O.3     
  20 C20            0.1059    11.1087     7.2082 C.ar    
  21 C21            0.0309    12.1974     8.0648 C.ar    
  22 C22            0.4896     9.8722     7.7188 C.ar    
  23 C23           -0.5282     0.0452    -0.0852 C.3     
  24 C24           -0.9591     0.8264     1.1577 C.3     
  25 N25            0.3238    12.0685     9.3437 N.ar    
  26 C26            0.6958    10.9127     9.8579 C.ar    
  27 C27            0.7881     9.7814     9.0685 C.ar    
  28 C28           -0.3891    13.5413     7.5278 C.3     
  29 C29            1.0194    10.8225    11.3270 C.3     
  30 C30            0.5576     8.3125     0.5818 C.3     
  31 F31            1.8703     8.7718     0.4299 F       
  32 F32           -0.0651     8.2579    -0.6697 F       
  33 F33           -0.1483     9.1858     1.4163 F       
  34 H34           -1.1190     2.1390    -0.6649 H       
  35 H35            1.9428    10.6999     4.4864 H       
  36 H36            2.2233     8.7446     3.0224 H       
  37 H37           -1.7229     7.4207     4.0489 H       
  38 H38            0.3582     5.3341     4.1780 H       
  39 H39            0.6313     3.4088     2.7416 H       
  40 H40            1.4267     1.9033     1.0120 H       
  41 H41            1.6186     1.7778    -0.7531 H       
  42 H42            0.5529     9.0048     7.0786 H       
  43 H43           -1.3133    -0.3898    -0.7036 H       
  44 H44            0.3947    -0.5315    -0.0223 H       
  45 H45           -0.3198     0.7638     2.0383 H       
  46 H46           -2.0278     0.9054     1.3570 H       
  47 H47            1.0936     8.8388     9.4982 H       
  48 H48           -1.4723    13.6391     7.6000 H       
  49 H49            0.0865    14.3303     8.1105 H       
  50 H50           -0.0853    13.6268     6.4845 H       
  51 H51            0.1155    10.5747    11.8836 H       
  52 H52            1.7686    10.0471    11.4871 H       
  53 H53            1.4080    11.7803    11.6730 H       
@<TRIPOS>BOND
   1    1   23 1
   2    1   17 1
   3    1   24 1
   4    1   34 1
   5    2    3 ar
   6    2    4 ar
   7    2   35 1
   8    3    7 ar
   9    3   36 1
  10    4    5 ar
  11    4   19 1
  12    5    6 ar
  13    5   18 1
  14    6    7 ar
  15    6   37 1
  16    7    8 1
  17    8    9 2
  18    8   10 1
  19    9   30 1
  20    9   13 1
  21   10   11 2
  22   10   38 1
  23   11   12 1
  24   11   39 1
  25   12   13 1
  26   12   14 1
  27   13   16 2
  28   14   15 2
  29   14   17 1
  30   15   16 1
  31   17   40 1
  32   17   41 1
  33   19   20 1
  34   20   21 ar
  35   20   22 ar
  36   21   25 ar
  37   21   28 1
  38   22   27 ar
  39   22   42 1
  40   23   24 1
  41   23   43 1
  42   23   44 1
  43   24   45 1
  44   24   46 1
  45   25   26 ar
  46   26   27 ar
  47   26   29 1
  48   27   47 1
  49   28   48 1
  50   28   49 1
  51   28   50 1
  52   29   51 1
  53   29   52 1
  54   29   53 1
  55   30   31 1
  56   30   32 1
  57   30   33 1

#	End of record

