#	Name: ASD01830006
#	Creating user name:	WinNT
#	Creation time:	15. 06. 2019 19:36

#	Modifying user name:	WinNT
#	Modification time:	15. 06. 2019 19:36

#	Program:	/corina/corina34_cracker 3.40 0067  02.08.2006

@<TRIPOS>MOLECULE
ASD01830006
  74   75    0    0    0
SMALL
NO_CHARGES


@<TRIPOS>ATOM
   1 Cl1            0.0000     0.0000     0.0000 Cl      
   2 H2             0.0000     1.3700     0.0000 H       
   3 Cl3            5.0000     6.3700     5.0000 Cl      
   4 H4             5.0000     7.7400     5.0000 H       
   5 Cl5           10.0000    12.7400    10.0000 Cl      
   6 H6            10.0000    14.1100    10.0000 H       
   7 C7            17.2385    27.2481    15.9468 C.3     
   8 C8            17.2592    25.7182    15.9384 C.3     
   9 H9            17.7573    25.3592    15.0378 H       
  10 C10           15.8165    25.1733    15.9931 C.3     
  11 C11           15.9453    23.9356    16.9197 C.3     
  12 C12           17.0121    24.4148    17.9354 C.3     
  13 N13           17.9637    25.2195    17.1338 N.3     
  14 C14           18.5117    26.3304    17.9236 C.3     
  15 C15           19.0048    25.8092    19.2488 C.2     
  16 S16           18.0517    25.6755    20.7247 S.3     
  17 C17           19.4493    25.0205    21.5720 C.2     
  18 N18           19.4702    24.6365    22.9059 N.am    
  19 C19           20.6025    24.1466    23.4484 C.2     
  20 O20           21.6055    24.0409    22.7697 O.2     
  21 C21           20.6247    23.7379    24.8682 C.ar    
  22 C22           21.7976    23.2364    25.4312 C.ar    
  23 N23           21.8170    22.8712    26.7000 N.ar    
  24 C24           20.7197    22.9818    27.4393 C.ar    
  25 C25           19.5430    23.4846    26.8741 C.ar    
  26 N26           19.5249    23.8538    25.6125 N.ar    
  27 N27           20.7400    22.5991    28.7692 N.3     
  28 C28           19.7050    21.5925    29.0434 C.3     
  29 C29           19.7077    21.2554    30.5363 C.3     
  30 N30           21.0362    20.7589    30.9213 N.3     
  31 C31           21.0577    20.3528    32.3329 C.3     
  32 C32           22.5005    20.0805    32.7633 C.3     
  33 C33           22.5225    19.6638    34.2114 C.2     
  34 O34           23.6890    19.3724    34.8082 O.3     
  35 O35           21.4902    19.5919    34.8352 O.2     
  36 C36           22.0713    21.7655    30.6471 C.3     
  37 C37           22.0685    22.1026    29.1542 C.3     
  38 N38           20.4559    24.9514    20.7574 N.2     
  39 C39           20.2481    25.3602    19.5069 C.2     
  40 C40           21.3084    25.3282    18.4767 C.2     
  41 C41           22.6193    25.5460    18.7021 C.2     
  42 C42           23.4193    25.4619    17.5790 C.2     
  43 Cl43          25.1370    25.7061    17.6376 Cl      
  44 C44           22.7734    25.1785    16.4448 C.2     
  45 S45           21.0551    24.9924    16.7689 S.3     
  46 H46           18.2611    27.6253    15.9391 H       
  47 H47           16.7113    27.6091    15.0638 H       
  48 H48           16.7283    27.5996    16.8436 H       
  49 H49           15.1420    25.9113    16.4274 H       
  50 H50           15.4782    24.8777    15.0000 H       
  51 H51           15.0000    23.7211    17.4182 H       
  52 H52           16.2978    23.0668    16.3638 H       
  53 H53           16.5509    25.0294    18.7086 H       
  54 H54           17.5216    23.5609    18.3819 H       
  55 H55           19.3399    26.7874    17.3820 H       
  56 H56           17.7334    27.0746    18.0927 H       
  57 H57           18.6699    24.7209    23.4474 H       
  58 H58           22.6900    23.1462    24.8295 H       
  59 H59           18.6505    23.5740    27.4756 H       
  60 H60           18.7292    21.9883    28.7618 H       
  61 H61           19.9124    20.6912    28.4667 H       
  62 H62           19.4734    22.1510    31.1118 H       
  63 H63           18.9604    20.4878    30.7372 H       
  64 H64           20.6398    21.1505    32.9469 H       
  65 H65           20.4638    19.4476    32.4596 H       
  66 H66           22.9184    19.2827    32.1493 H       
  67 H67           23.0944    20.9856    32.6366 H       
  68 H68           23.6527    19.1100    35.7382 H       
  69 H69           21.8638    22.6669    31.2238 H       
  70 H70           23.0471    21.3698    30.9288 H       
  71 H71           22.3028    21.2070    28.5788 H       
  72 H72           22.8158    22.8702    28.9533 H       
  73 H73           23.0129    25.7689    19.6828 H       
  74 H74           23.2373    25.0752    15.4750 H       
@<TRIPOS>BOND
   1    1    2 1
   2    3    4 1
   3    5    6 1
   4    7    8 1
   5    7   46 1
   6    7   47 1
   7    7   48 1
   8    8    9 1
   9    8   13 1
  10    8   10 1
  11   10   11 1
  12   10   49 1
  13   10   50 1
  14   11   12 1
  15   11   51 1
  16   11   52 1
  17   12   13 1
  18   12   53 1
  19   12   54 1
  20   13   14 1
  21   14   15 1
  22   14   55 1
  23   14   56 1
  24   15   39 2
  25   15   16 1
  26   16   17 1
  27   17   18 1
  28   17   38 2
  29   18   19 am
  30   18   57 1
  31   19   20 2
  32   19   21 1
  33   21   26 ar
  34   21   22 ar
  35   22   23 ar
  36   22   58 1
  37   23   24 ar
  38   24   25 ar
  39   24   27 1
  40   25   26 ar
  41   25   59 1
  42   27   37 1
  43   27   28 1
  44   28   29 1
  45   28   60 1
  46   28   61 1
  47   29   30 1
  48   29   62 1
  49   29   63 1
  50   30   31 1
  51   30   36 1
  52   31   32 1
  53   31   64 1
  54   31   65 1
  55   32   33 1
  56   32   66 1
  57   32   67 1
  58   33   34 1
  59   33   35 2
  60   34   68 1
  61   36   37 1
  62   36   69 1
  63   36   70 1
  64   37   71 1
  65   37   72 1
  66   38   39 1
  67   39   40 1
  68   40   45 1
  69   40   41 2
  70   41   42 1
  71   41   73 1
  72   42   43 1
  73   42   44 2
  74   44   45 1
  75   44   74 1

#	End of record

