#	Name: ASD01885475
#	Creating user name:	WinNT
#	Creation time:	15. 06. 2019 19:49

#	Modifying user name:	WinNT
#	Modification time:	15. 06. 2019 19:49

#	Program:	/corina/corina34_cracker 3.40 0067  02.08.2006

@<TRIPOS>MOLECULE
ASD01885475
  50   53    0    0    0
SMALL
NO_CHARGES


@<TRIPOS>ATOM
   1 C1             0.0996     1.0457    -0.5098 C.ar    
   2 C2             0.2258    -0.1442    -1.2278 C.ar    
   3 N3            -0.8212    -0.9377    -1.5645 N.2     
   4 C4            -1.9642    -0.5466    -1.9951 C.2     
   5 C5            -2.2959     0.9147    -2.1475 C.3     
   6 C6            -2.2453     1.5529    -0.7823 C.2     
   7 N7            -1.1156     1.5575    -0.0758 N.am    
   8 C8             1.2417     1.7840    -0.2029 C.ar    
   9 C9             2.4935     1.3512    -0.6070 C.ar    
  10 C10            2.6198     0.1673    -1.3282 C.ar    
  11 C11            1.5033    -0.5710    -1.6350 C.ar    
  12 C12           -2.9796    -1.5536    -2.3506 C.ar    
  13 O13           -3.2427     2.0688    -0.3238 O.2     
  14 C14           -2.7113    -2.9236    -2.2241 C.ar    
  15 C15           -3.6911    -3.8315    -2.5679 C.ar    
  16 N16           -4.8660    -3.4264    -3.0105 N.ar    
  17 C17           -5.1616    -2.1467    -3.1454 C.ar    
  18 C18           -4.2428    -1.1686    -2.8193 C.ar    
  19 Cl19          -6.7287    -1.6874    -3.7342 Cl      
  20 N20            3.6284     2.1021    -0.2917 N.pl3   
  21 C21            4.7907     1.4712     0.0573 C.2     
  22 N22            5.8974     2.1725     0.2290 N.2     
  23 N23            4.8075     0.1156     0.2285 N.pl3   
  24 C24            6.0821    -0.5849     0.4042 C.3     
  25 C25            5.9119     3.4965    -0.0587 C.1     
  26 N26            5.9240     4.6066    -0.2999 N.1     
  27 C27            5.8256    -2.0604     0.5716 C.ar    
  28 C28            5.7897    -2.8858    -0.5367 C.ar    
  29 C29            5.5543    -4.2393    -0.3832 C.ar    
  30 C30            5.3553    -4.7675     0.8786 C.ar    
  31 C31            5.3921    -3.9422     1.9870 C.ar    
  32 C32            5.6318    -2.5895     1.8339 C.ar    
  33 H33           -1.5672     1.3909    -2.8034 H       
  34 H34           -3.2959     1.0230    -2.5674 H       
  35 H35           -1.1445     1.9464     0.8124 H       
  36 H36            1.1492     2.7037     0.3558 H       
  37 H37            3.5951    -0.1704    -1.6462 H       
  38 H38            1.6068    -1.4887    -2.1949 H       
  39 H39           -1.7517    -3.2631    -1.8631 H       
  40 H40           -3.4935    -4.8890    -2.4737 H       
  41 H41           -4.4909    -0.1236    -2.9320 H       
  42 H42            3.5922     3.0710    -0.3203 H       
  43 H43            3.9754    -0.3830     0.2336 H       
  44 H44            6.7099    -0.4223    -0.4719 H       
  45 H45            6.5883    -0.2013     1.2901 H       
  46 H46            5.9451    -2.4731    -1.5226 H       
  47 H47            5.5255    -4.8840    -1.2492 H       
  48 H48            5.1707    -5.8248     0.9985 H       
  49 H49            5.2363    -4.3549     2.9729 H       
  50 H50            5.6606    -1.9447     2.6999 H       
@<TRIPOS>BOND
   1    1    2 ar
   2    1    8 ar
   3    1    7 1
   4    2    3 1
   5    2   11 ar
   6    3    4 2
   7    4    5 1
   8    4   12 1
   9    5    6 1
  10    5   33 1
  11    5   34 1
  12    6    7 am
  13    6   13 2
  14    7   35 1
  15    8    9 ar
  16    8   36 1
  17    9   10 ar
  18    9   20 1
  19   10   11 ar
  20   10   37 1
  21   11   38 1
  22   12   14 ar
  23   12   18 ar
  24   14   15 ar
  25   14   39 1
  26   15   16 ar
  27   15   40 1
  28   16   17 ar
  29   17   18 ar
  30   17   19 1
  31   18   41 1
  32   20   21 1
  33   20   42 1
  34   21   22 2
  35   21   23 1
  36   22   25 1
  37   23   24 1
  38   23   43 1
  39   24   27 1
  40   24   44 1
  41   24   45 1
  42   25   26 3
  43   27   28 ar
  44   27   32 ar
  45   28   29 ar
  46   28   46 1
  47   29   30 ar
  48   29   47 1
  49   30   31 ar
  50   30   48 1
  51   31   32 ar
  52   31   49 1
  53   32   50 1

#	End of record

