#	Name: ASD03090250
#	Creating user name:	WinNT
#	Creation time:	15. 06. 2019 20:28

#	Modifying user name:	WinNT
#	Modification time:	15. 06. 2019 20:28

#	Program:	/corina/corina34_cracker 3.40 0067  02.08.2006

@<TRIPOS>MOLECULE
ASD03090250
  47   50    0    0    0
SMALL
NO_CHARGES


@<TRIPOS>ATOM
   1 C1            -0.4460     1.5890    -1.8784 C.ar    
   2 C2            -0.3711     0.2156    -1.6744 C.ar    
   3 C3            -1.4873    -0.4421    -1.1643 C.ar    
   4 C4            -2.6332     0.3072    -0.8859 C.ar    
   5 C5            -2.6211     1.6809    -1.1270 C.ar    
   6 N6            -1.5421     2.2653    -1.6063 N.ar    
   7 C7            -3.8438    -0.3480    -0.3430 C.2     
   8 N8            -5.5723    -2.9785     1.2224 N.pl3   
   9 C9            -4.6470    -3.9798     1.5348 C.ar    
  10 C10           -3.3374    -3.6424     1.8506 C.ar    
  11 C11           -2.4254    -4.6329     2.1593 C.ar    
  12 C12           -2.8160    -5.9611     2.1537 C.ar    
  13 C13           -4.1213    -6.2999     1.8386 C.ar    
  14 C14           -5.0380    -5.3127     1.5354 C.ar    
  15 N15           -3.8944    -1.5381     0.2213 N.2     
  16 C16           -5.1472    -1.8067     0.5933 C.2     
  17 N17           -5.9161    -0.7919     0.2723 N.2     
  18 N18           -5.0920     0.1708    -0.3328 N.pl3   
  19 C19           -5.5046     1.4754    -0.8562 C.3     
  20 C20           -7.0308     1.5779    -0.8250 C.3     
  21 F21           -1.9222    -6.9283     2.4555 F       
  22 C22           -7.4645     2.9160    -1.4270 C.3     
  23 O23           -7.4864     1.4937     0.5268 O.3     
  24 C24            0.9035     2.0260    -2.4199 C.3     
  25 C25            1.7926     0.8034    -2.0925 C.3     
  26 O26            0.8438    -0.2755    -2.0390 O.3     
  27 C27           -4.5433    -7.7466     1.8329 C.3     
  28 F28           -5.8960    -7.8365     1.4876 F       
  29 F29           -3.7760    -8.4525     0.8999 F       
  30 F30           -4.3495    -8.2940     3.1057 F       
  31 H31           -1.4679    -1.5074    -0.9881 H       
  32 H32           -3.5018     2.2698    -0.9177 H       
  33 H33           -6.5093    -3.0981     1.4427 H       
  34 H34           -3.0321    -2.6065     1.8544 H       
  35 H35           -1.4068    -4.3710     2.4049 H       
  36 H36           -6.0560    -5.5773     1.2901 H       
  37 H37           -5.0747     2.2660    -0.2412 H       
  38 H38           -5.1541     1.5824    -1.8827 H       
  39 H39           -7.4617     0.7619    -1.4052 H       
  40 H40           -7.1170     2.9803    -2.4581 H       
  41 H41           -8.5518     2.9891    -1.4048 H       
  42 H42           -7.0336     3.7321    -0.8468 H       
  43 H43           -7.0846     2.1445     1.1185 H       
  44 H44            0.8551     2.1953    -3.4956 H       
  45 H45            1.2605     2.9167    -1.9028 H       
  46 H46            2.5242     0.6354    -2.8829 H       
  47 H47            2.2860     0.9318    -1.1291 H       
@<TRIPOS>BOND
   1    1    2 ar
   2    1   24 1
   3    1    6 ar
   4    2    3 ar
   5    2   26 1
   6    3    4 ar
   7    3   31 1
   8    4    5 ar
   9    4    7 1
  10    5    6 ar
  11    5   32 1
  12    7   15 2
  13    7   18 1
  14    8    9 1
  15    8   16 1
  16    8   33 1
  17    9   10 ar
  18    9   14 ar
  19   10   11 ar
  20   10   34 1
  21   11   12 ar
  22   11   35 1
  23   12   13 ar
  24   12   21 1
  25   13   14 ar
  26   13   27 1
  27   14   36 1
  28   15   16 1
  29   16   17 2
  30   17   18 1
  31   18   19 1
  32   19   20 1
  33   19   37 1
  34   19   38 1
  35   20   22 1
  36   20   23 1
  37   20   39 1
  38   22   40 1
  39   22   41 1
  40   22   42 1
  41   23   43 1
  42   24   25 1
  43   24   44 1
  44   24   45 1
  45   25   26 1
  46   25   46 1
  47   25   47 1
  48   27   28 1
  49   27   29 1
  50   27   30 1

#	End of record

