#	Name: ASD01680082
#	Creating user name:	WinNT
#	Creation time:	15. 06. 2019 19:22

#	Modifying user name:	WinNT
#	Modification time:	15. 06. 2019 19:22

#	Program:	/corina/corina34_cracker 3.40 0067  02.08.2006

@<TRIPOS>MOLECULE
ASD01680082
  86   89    0    0    0
SMALL
NO_CHARGES


@<TRIPOS>ATOM
   1 C1            -1.5995     1.1785    -0.7008 C.2     
   2 C2            -1.4019    -0.3130    -0.7864 C.3     
   3 C3            -1.8754    -0.8127    -2.1528 C.3     
   4 O4            -0.6510     1.9040    -0.5170 O.2     
   5 O5            -2.8285     1.7014    -0.8343 O.3     
   6 N6             0.0187    -0.6280    -0.6168 N.am    
   7 S7             0.6040    -1.0342     0.8782 S.o2    
   8 O8             1.9870    -1.3113     0.7059 O.2     
   9 O9             0.1148    -0.0520     1.7811 O.2     
  10 C10           -0.1547    -2.5560     1.3395 C.ar    
  11 C11           -1.2512    -2.5544     2.1813 C.ar    
  12 C12           -1.8465    -3.7484     2.5432 C.ar    
  13 C13           -1.3455    -4.9439     2.0631 C.ar    
  14 C14           -0.2495    -4.9455     1.2206 C.ar    
  15 C15            0.3430    -3.7512     0.8551 C.ar    
  16 C16            1.5346    -3.7526    -0.0675 C.3     
  17 C17           -1.9938    -6.2456     2.4585 C.3     
  18 C18           -1.7974    -1.2511     2.7047 C.3     
  19 N19           -1.5741    -2.2405    -2.2820 N.am    
  20 C20           -1.9036    -2.8994    -3.4106 C.2     
  21 O21           -2.4494    -2.3102    -4.3194 O.2     
  22 C22           -1.5937    -4.3682    -3.5434 C.3     
  23 O23           -2.0359    -4.8348    -4.8197 O.3     
  24 N24           -3.9534    -6.9962    -5.7244 N.am    
  25 C25           -2.9978    -7.0837    -4.6053 C.3     
  26 C26           -1.7882    -6.2234    -5.0486 C.3     
  27 C27           -1.7249    -6.5340    -6.5674 C.3     
  28 C28           -3.2124    -6.6765    -6.9533 C.3     
  29 C29           -3.3800    -7.8066    -7.9710 C.3     
  30 N30           -2.7254    -7.4334    -9.2273 N.pl3   
  31 C31           -2.6560    -8.3468   -10.2729 C.ar    
  32 C32           -3.2104    -9.6137   -10.1196 C.ar    
  33 C33           -3.1343   -10.5124   -11.1680 C.ar    
  34 C34           -2.5039   -10.1128   -12.3392 C.ar    
  35 C35           -1.9758    -8.8403   -12.4224 C.ar    
  36 N36           -2.0678    -8.0016   -11.4077 N.ar    
  37 C37           -5.2852    -7.1840    -5.6367 C.2     
  38 N38           -5.8597    -7.3837    -4.4340 N.am    
  39 O39           -5.9682    -7.1732    -6.6425 O.2     
  40 C40           -7.3073    -7.5879    -4.3386 C.3     
  41 C41           -7.6447    -8.3826    -3.0649 C.3     
  42 C42           -8.5562    -7.4783    -2.2097 C.3     
  43 C43           -9.1923    -6.5044    -3.2324 C.3     
  44 C44           -8.0255    -6.2284    -4.2130 C.3     
  45 H45           -1.9787    -0.8016    -0.0011 H       
  46 H46           -2.9507    -0.6585    -2.2434 H       
  47 H47           -1.3617    -0.2603    -2.9396 H       
  48 H48           -2.9055     2.6634    -0.7720 H       
  49 H49            0.6165    -0.5986    -1.3801 H       
  50 H50           -2.7027    -3.7472     3.2015 H       
  51 H51            0.1421    -5.8796     0.8457 H       
  52 H52            2.4506    -3.7138     0.5221 H       
  53 H53            1.5277    -4.6618    -0.6686 H       
  54 H54            1.4874    -2.8832    -0.7232 H       
  55 H55           -2.7754    -6.4950     1.7408 H       
  56 H56           -1.2440    -7.0367     2.4685 H       
  57 H57           -2.4309    -6.1468     3.4521 H       
  58 H58           -2.3143    -0.7252     1.9020 H       
  59 H59           -2.4958    -1.4501     3.5175 H       
  60 H60           -0.9770    -0.6352     3.0733 H       
  61 H61           -1.1376    -2.7117    -1.5551 H       
  62 H62           -0.5184    -4.5223    -3.4529 H       
  63 H63           -2.1074    -4.9205    -2.7566 H       
  64 H64           -3.4401    -6.6764    -3.6961 H       
  65 H65           -2.6908    -8.1177    -4.4486 H       
  66 H66           -0.8758    -6.5435    -4.5454 H       
  67 H67           -1.2628    -5.7098    -7.1107 H       
  68 H68           -1.1887    -7.4655    -6.7485 H       
  69 H69           -3.5777    -5.7393    -7.3733 H       
  70 H70           -2.9254    -8.7172    -7.5809 H       
  71 H71           -4.4411    -7.9787    -8.1513 H       
  72 H72           -2.3403    -6.5490    -9.3296 H       
  73 H73           -3.6933    -9.8916    -9.1944 H       
  74 H74           -3.5553   -11.5029   -11.0778 H       
  75 H75           -2.4274   -10.7909   -13.1762 H       
  76 H76           -1.4847    -8.5254   -13.3313 H       
  77 H77           -5.3148    -7.3923    -3.6316 H       
  78 H78           -7.6676    -8.1215    -5.2181 H       
  79 H79           -8.1695    -9.3015    -3.3262 H       
  80 H80           -6.7314    -8.6164    -2.5177 H       
  81 H81           -9.3270    -8.0707    -1.7167 H       
  82 H82           -7.9676    -6.9290    -1.4750 H       
  83 H83          -10.0273    -6.9778    -3.7490 H       
  84 H84           -9.5113    -5.5843    -2.7428 H       
  85 H85           -7.3512    -5.4772    -3.8018 H       
  86 H86           -8.4090    -5.9086    -5.1819 H       
@<TRIPOS>BOND
   1    1    2 1
   2    1    4 2
   3    1    5 1
   4    2    3 1
   5    2    6 1
   6    2   45 1
   7    3   19 1
   8    3   46 1
   9    3   47 1
  10    5   48 1
  11    6    7 am
  12    6   49 1
  13    7    8 2
  14    7    9 2
  15    7   10 1
  16   10   11 ar
  17   10   15 ar
  18   11   12 ar
  19   11   18 1
  20   12   13 ar
  21   12   50 1
  22   13   14 ar
  23   13   17 1
  24   14   15 ar
  25   14   51 1
  26   15   16 1
  27   16   52 1
  28   16   53 1
  29   16   54 1
  30   17   55 1
  31   17   56 1
  32   17   57 1
  33   18   58 1
  34   18   59 1
  35   18   60 1
  36   19   20 am
  37   19   61 1
  38   20   21 2
  39   20   22 1
  40   22   23 1
  41   22   62 1
  42   22   63 1
  43   23   26 1
  44   24   25 1
  45   24   28 1
  46   24   37 am
  47   25   26 1
  48   25   64 1
  49   25   65 1
  50   26   27 1
  51   26   66 1
  52   27   28 1
  53   27   67 1
  54   27   68 1
  55   28   29 1
  56   28   69 1
  57   29   30 1
  58   29   70 1
  59   29   71 1
  60   30   31 1
  61   30   72 1
  62   31   32 ar
  63   31   36 ar
  64   32   33 ar
  65   32   73 1
  66   33   34 ar
  67   33   74 1
  68   34   35 ar
  69   34   75 1
  70   35   36 ar
  71   35   76 1
  72   37   38 am
  73   37   39 2
  74   38   40 1
  75   38   77 1
  76   40   41 1
  77   40   44 1
  78   40   78 1
  79   41   42 1
  80   41   79 1
  81   41   80 1
  82   42   43 1
  83   42   81 1
  84   42   82 1
  85   43   44 1
  86   43   83 1
  87   43   84 1
  88   44   85 1
  89   44   86 1

#	End of record

