#	Name: ASD01000049
#	Creating user name:	WinNT
#	Creation time:	15. 06. 2019 18:54

#	Modifying user name:	WinNT
#	Modification time:	15. 06. 2019 18:54

#	Program:	/corina/corina34_cracker 3.40 0067  02.08.2006

@<TRIPOS>MOLECULE
ASD01000049
  38   40    0    0    0
SMALL
NO_CHARGES


@<TRIPOS>ATOM
   1 C1             0.6601     1.6649     0.4191 C.ar    
   2 C2             0.4836     0.3049     0.2472 C.ar    
   3 C3             1.5796    -0.5379     0.2318 C.ar    
   4 C4             2.8516    -0.0203     0.3877 C.ar    
   5 C5             3.0281     1.3403     0.5588 C.ar    
   6 C6             1.9325     2.1826     0.5757 C.ar    
   7 C7             1.3872    -2.0208     0.0453 C.3     
   8 N8             2.3648    -2.4835    -0.9541 N.am    
   9 C9             1.4410    -2.6744     1.4114 C.2     
  10 C10            2.3768    -3.6300     1.6152 C.2     
  11 N11            3.2409    -3.9912     0.6238 N.am    
  12 C12            3.2374    -3.4473    -0.5996 C.2     
  13 C13            0.5442    -2.2980     2.4382 C.2     
  14 S14            4.3794    -3.9944    -1.7519 S.2     
  15 O15            0.9613    -1.7375     3.4358 O.2     
  16 C16           -0.9010    -2.5853     2.3005 C.ar    
  17 C17           -1.8000    -2.1368     3.2692 C.ar    
  18 C18           -3.1461    -2.4075     3.1346 C.ar    
  19 *19            4.4638     1.9244     0.7359 Du      
  20 C20            2.4660    -4.3058     2.9592 C.3     
  21 C21           -3.6053    -3.1223     2.0426 C.ar    
  22 C22           -2.7191    -3.5698     1.0787 C.ar    
  23 C23           -1.3713    -3.3008     1.1985 C.ar    
  24 H24           -0.1957     2.3237     0.4267 H       
  25 H25           -0.5103    -0.0996     0.1253 H       
  26 H26            3.7077    -0.6786     0.3764 H       
  27 H27            2.0703     3.2453     0.7097 H       
  28 H28            0.3889    -2.1785    -0.3630 H       
  29 H29            2.3801    -2.1037    -1.8465 H       
  30 H30            3.8953    -4.6810     0.8160 H       
  31 H31           -1.4428    -1.5793     4.1224 H       
  32 H32           -3.8429    -2.0610     3.8835 H       
  33 H33            1.7558    -5.1317     2.9984 H       
  34 H34            3.4760    -4.6878     3.1075 H       
  35 H35            2.2307    -3.5867     3.7438 H       
  36 H36           -4.6599    -3.3322     1.9422 H       
  37 H37           -3.0839    -4.1272     0.2286 H       
  38 H38           -0.6807    -3.6506     0.4455 H       
@<TRIPOS>BOND
   1    1    2 ar
   2    1    6 ar
   3    1   24 1
   4    2    3 ar
   5    2   25 1
   6    3    4 ar
   7    3    7 1
   8    4    5 ar
   9    4   26 1
  10    5    6 ar
  11    5   19 1
  12    6   27 1
  13    7    8 1
  14    7    9 1
  15    7   28 1
  16    8   12 am
  17    8   29 1
  18    9   10 2
  19    9   13 1
  20   10   11 1
  21   10   20 1
  22   11   12 am
  23   11   30 1
  24   12   14 2
  25   13   15 2
  26   13   16 1
  27   16   17 ar
  28   16   23 ar
  29   17   18 ar
  30   17   31 1
  31   18   21 ar
  32   18   32 1
  33   20   33 1
  34   20   34 1
  35   20   35 1
  36   21   22 ar
  37   21   36 1
  38   22   23 ar
  39   22   37 1
  40   23   38 1

#	End of record

