#	Name: ASD01230385
#	Creating user name:	WinNT
#	Creation time:	15. 06. 2019 19:14

#	Modifying user name:	WinNT
#	Modification time:	15. 06. 2019 19:14

#	Program:	/corina/corina34_cracker 3.40 0067  02.08.2006

@<TRIPOS>MOLECULE
ASD01230385
  35   37    0    0    0
SMALL
NO_CHARGES


@<TRIPOS>ATOM
   1 S1            -0.0204     1.6502     0.0111 S.o2    
   2 N2             0.0021    -0.0041     0.0020 N.am    
   3 C3             1.0256    -0.6894    -0.4563 C.2     
   4 N4             2.1713    -0.1507    -0.9688 N.pl3   
   5 C5             2.3936     1.2863    -1.1471 C.3     
   6 C6             1.7498     2.0759    -0.0035 C.3     
   7 C7             0.8928    -2.1077    -0.3981 C.2     
   8 C8             1.9093    -2.9032    -0.8069 C.2     
   9 C9             3.0927    -2.3153    -1.2868 C.2     
  10 C10            3.1981    -0.9765    -1.3566 C.2     
  11 S11           -0.5972    -2.8269     0.2079 S.o     
  12 O12           -0.3321    -4.2210     0.1348 O.2     
  13 C13           -0.6241    -2.3069     1.9455 C.3     
  14 C14           -1.8598    -2.8521     2.6140 C.ar    
  15 C15           -1.8250    -4.0912     3.2259 C.ar    
  16 C16           -2.9585    -4.5913     3.8390 C.ar    
  17 C17           -4.1267    -3.8522     3.8406 C.ar    
  18 C18           -4.1612    -2.6127     3.2295 C.ar    
  19 C19           -3.0265    -2.1107     2.6202 C.ar    
  20 O20           -0.6348     2.0061    -1.2198 O.2     
  21 O21           -0.6111     1.9928     1.2573 O.2     
  22 H22            3.4652     1.4851    -1.1626 H       
  23 H23            1.9560     1.6031    -2.0938 H       
  24 H24            1.8733     3.1452    -0.1748 H       
  25 H25            2.2071     1.7954     0.9453 H       
  26 H26            1.8121    -3.9780    -0.7645 H       
  27 H27            3.9172    -2.9389    -1.5995 H       
  28 H28            4.1135    -0.5393    -1.7270 H       
  29 H29            0.2619    -2.6887     2.4528 H       
  30 H30           -0.6325    -1.2182     1.9989 H       
  31 H31           -0.9124    -4.6687     3.2246 H       
  32 H32           -2.9316    -5.5597     4.3164 H       
  33 H33           -5.0125    -4.2433     4.3190 H       
  34 H34           -5.0740    -2.0354     3.2305 H       
  35 H35           -3.0525    -1.1407     2.1460 H       
@<TRIPOS>BOND
   1    1    2 am
   2    1    6 1
   3    1   20 2
   4    1   21 2
   5    2    3 2
   6    3    4 1
   7    3    7 1
   8    4    5 1
   9    4   10 1
  10    5    6 1
  11    5   22 1
  12    5   23 1
  13    6   24 1
  14    6   25 1
  15    7    8 2
  16    7   11 1
  17    8    9 1
  18    8   26 1
  19    9   10 2
  20    9   27 1
  21   10   28 1
  22   11   12 2
  23   11   13 1
  24   13   14 1
  25   13   29 1
  26   13   30 1
  27   14   15 ar
  28   14   19 ar
  29   15   16 ar
  30   15   31 1
  31   16   17 ar
  32   16   32 1
  33   17   18 ar
  34   17   33 1
  35   18   19 ar
  36   18   34 1
  37   19   35 1

#	End of record

