#	Name: ASD01840497
#	Creating user name:	WinNT
#	Creation time:	15. 06. 2019 19:37

#	Modifying user name:	WinNT
#	Modification time:	15. 06. 2019 19:37

#	Program:	/corina/corina34_cracker 3.40 0067  02.08.2006

@<TRIPOS>MOLECULE
ASD01840497
  46   49    0    0    0
SMALL
NO_CHARGES


@<TRIPOS>ATOM
   1 C1            -0.1550     1.6396    -0.0457 C.3     
   2 C2            -0.0908     0.1110    -0.0439 C.3     
   3 H3            -1.0906    -0.3007     0.0940 H       
   4 N4             0.4727    -0.3650    -1.3124 N.am    
   5 C5             1.6932    -1.1090    -0.9814 C.3     
   6 C6             1.8584    -1.0744     0.5153 C.ar    
   7 N7             2.7814    -1.5858     1.3188 N.ar    
   8 C8             2.7100    -1.4190     2.6242 C.ar    
   9 C9             3.7817    -2.0183     3.4978 C.3     
  10 N10            1.7293    -0.7434     3.1878 N.ar    
  11 C11            0.7663    -0.2008     2.4470 C.ar    
  12 N12           -0.2647     0.5096     3.0402 N.3     
  13 C13            0.2536     1.6771     3.7773 C.3     
  14 C14           -0.7504     1.3495     4.8914 C.3     
  15 C15           -0.6316    -0.0789     4.3418 C.3     
  16 C16            0.8124    -0.3606     1.0632 C.ar    
  17 C17           -0.0336    -0.1588    -2.5443 C.2     
  18 O18           -1.1082     0.3939    -2.6751 O.2     
  19 C19            0.7182    -0.6050    -3.7368 C.ar    
  20 C20            0.2787    -0.2538    -5.0139 C.ar    
  21 C21            0.9839    -0.6727    -6.1235 C.ar    
  22 C22            2.1247    -1.4401    -5.9732 C.ar    
  23 C23            2.8895    -1.8939    -7.1898 C.3     
  24 F24            3.5142    -3.1159    -6.9189 F       
  25 F25            2.0070    -2.0493    -8.2642 F       
  26 C26            2.5675    -1.7930    -4.7083 C.ar    
  27 F27            3.6827    -2.5427    -4.5688 F       
  28 C28            1.8734    -1.3742    -3.5894 C.ar    
  29 H29            0.8547     2.0456    -0.1078 H       
  30 H30           -0.7359     1.9779    -0.9037 H       
  31 H31           -0.6294     1.9845     0.8730 H       
  32 H32            1.5997    -2.1411    -1.3191 H       
  33 H33            2.5531    -0.6394    -1.4590 H       
  34 H34            4.5893    -1.2980     3.6281 H       
  35 H35            3.3590    -2.2700     4.4705 H       
  36 H36            4.1721    -2.9205     3.0269 H       
  37 H37            1.2938     1.5697     4.0848 H       
  38 H38            0.0562     2.6269     3.2804 H       
  39 H39           -0.3549     1.4742     5.8995 H       
  40 H40           -1.7331     1.8005     4.7534 H       
  41 H41           -1.5792    -0.6173     4.3233 H       
  42 H42            0.1724    -0.6550     4.8000 H       
  43 H43           -0.6122     0.3448    -5.1336 H       
  44 H44            0.6439    -0.4010    -7.1119 H       
  45 H45            3.6435    -1.1488    -7.4438 H       
  46 H46            2.2211    -1.6455    -2.6035 H       
@<TRIPOS>BOND
   1    1    2 1
   2    1   29 1
   3    1   30 1
   4    1   31 1
   5    2    3 1
   6    2   16 1
   7    2    4 1
   8    4    5 1
   9    4   17 am
  10    5    6 1
  11    5   32 1
  12    5   33 1
  13    6   16 ar
  14    6    7 ar
  15    7    8 ar
  16    8    9 1
  17    8   10 ar
  18    9   34 1
  19    9   35 1
  20    9   36 1
  21   10   11 ar
  22   11   12 1
  23   11   16 ar
  24   12   15 1
  25   12   13 1
  26   13   14 1
  27   13   37 1
  28   13   38 1
  29   14   15 1
  30   14   39 1
  31   14   40 1
  32   15   41 1
  33   15   42 1
  34   17   18 2
  35   17   19 1
  36   19   28 ar
  37   19   20 ar
  38   20   21 ar
  39   20   43 1
  40   21   22 ar
  41   21   44 1
  42   22   23 1
  43   22   26 ar
  44   23   24 1
  45   23   25 1
  46   23   45 1
  47   26   27 1
  48   26   28 ar
  49   28   46 1

#	End of record

