#	Name: ASD01813532
#	Creating user name:	WinNT
#	Creation time:	15. 06. 2019 19:30

#	Modifying user name:	WinNT
#	Modification time:	15. 06. 2019 19:30

#	Program:	/corina/corina34_cracker 3.40 0067  02.08.2006

@<TRIPOS>MOLECULE
ASD01813532
  50   53    0    0    0
SMALL
NO_CHARGES


@<TRIPOS>ATOM
   1 C1            -0.0178     1.4608     0.0101 C.3     
   2 N2             0.0021    -0.0041     0.0020 N.pl3   
   3 C3             0.0078    -0.7920    -1.0936 C.2     
   4 C4             0.0272    -2.0789    -0.6760 C.2     
   5 C5             0.0405    -3.2983    -1.5614 C.3     
   6 N6             1.4259    -3.6744    -1.8538 N.pl3   
   7 C7             2.1149    -3.2912    -2.9559 C.2     
   8 C8             3.3736    -3.8140    -2.9177 C.2     
   9 C9             4.4310    -3.6352    -3.9218 C.2     
  10 O10            5.5166    -4.1610    -3.7623 O.2     
  11 N11            4.1986    -2.8887    -5.0196 N.am    
  12 C12            5.2531    -2.7103    -6.0208 C.3     
  13 H13            6.2222    -2.6661    -5.5239 H       
  14 C14            5.2338    -3.8882    -6.9971 C.3     
  15 C15            6.3351    -3.7019    -8.0428 C.3     
  16 C16            6.0952    -2.3999    -8.8097 C.3     
  17 C17            6.1145    -1.2220    -7.8334 C.3     
  18 C18            5.0132    -1.4083    -6.7877 C.3     
  19 H19            4.0441    -1.4525    -7.2846 H       
  20 O20            5.0312    -0.3082    -5.8759 O.3     
  21 C21            3.4643    -4.5939    -1.6695 C.ar    
  22 C22            4.4709    -5.3508    -1.0714 C.ar    
  23 F23            5.6760    -5.4723    -1.6698 F       
  24 C24            4.2294    -5.9748     0.1358 C.ar    
  25 C25            2.9930    -5.8508     0.7518 C.ar    
  26 C26            1.9900    -5.1056     0.1708 C.ar    
  27 C27            2.2150    -4.4637    -1.0430 C.ar    
  28 C28            0.0335    -2.0775     0.7227 C.2     
  29 N29            0.0246    -0.8342     1.1302 N.2     
  30 H30            1.0048     1.8381     0.0023 H       
  31 H31           -0.5450     1.8219    -0.8730 H       
  32 H32           -0.5280     1.8123     0.9069 H       
  33 H33           -0.0017    -0.4556    -2.1198 H       
  34 H34           -0.4600    -4.1222    -1.0527 H       
  35 H35           -0.4801    -3.0765    -2.4930 H       
  36 H36            1.7256    -2.6659    -3.7458 H       
  37 H37            3.3331    -2.4695    -5.1467 H       
  38 H38            5.4047    -4.8158    -6.4508 H       
  39 H39            4.2647    -3.9324    -7.4940 H       
  40 H40            7.3042    -3.6577    -7.5459 H       
  41 H41            6.3214    -4.5411    -8.7383 H       
  42 H42            6.8798    -2.2672    -9.5546 H       
  43 H43            5.1261    -2.4442    -9.3066 H       
  44 H44            7.0836    -1.1778    -7.3365 H       
  45 H45            5.9436    -0.2944    -8.3797 H       
  46 H46            4.8853     0.5515    -6.2938 H       
  47 H47            5.0062    -6.5623     0.6024 H       
  48 H48            2.8143    -6.3435     1.6962 H       
  49 H49            1.0311    -5.0163     0.6595 H       
  50 H50            0.0482    -2.9516     1.3568 H       
@<TRIPOS>BOND
   1    1    2 1
   2    1   30 1
   3    1   31 1
   4    1   32 1
   5    2   29 1
   6    2    3 1
   7    3    4 2
   8    3   33 1
   9    4    5 1
  10    4   28 1
  11    5    6 1
  12    5   34 1
  13    5   35 1
  14    6   27 1
  15    6    7 1
  16    7    8 2
  17    7   36 1
  18    8    9 1
  19    8   21 1
  20    9   10 2
  21    9   11 am
  22   11   12 1
  23   11   37 1
  24   12   13 1
  25   12   18 1
  26   12   14 1
  27   14   15 1
  28   14   38 1
  29   14   39 1
  30   15   16 1
  31   15   40 1
  32   15   41 1
  33   16   17 1
  34   16   42 1
  35   16   43 1
  36   17   18 1
  37   17   44 1
  38   17   45 1
  39   18   19 1
  40   18   20 1
  41   20   46 1
  42   21   27 ar
  43   21   22 ar
  44   22   23 1
  45   22   24 ar
  46   24   25 ar
  47   24   47 1
  48   25   26 ar
  49   25   48 1
  50   26   27 ar
  51   26   49 1
  52   28   29 2
  53   28   50 1

#	End of record

