#	Name: ASD01901565
#	Creating user name:	WinNT
#	Creation time:	15. 06. 2019 19:54

#	Modifying user name:	WinNT
#	Modification time:	15. 06. 2019 19:54

#	Program:	/corina/corina34_cracker 3.40 0067  02.08.2006

@<TRIPOS>MOLECULE
ASD01901565
  41   45    0    0    0
SMALL
NO_CHARGES


@<TRIPOS>ATOM
   1 C1             0.9078     0.9786     1.4869 C.3     
   2 N2             0.8734    -0.3877     0.9594 N.pl3   
   3 N3             0.9201    -0.7482    -0.3927 N.2     
   4 C4             0.8697    -2.0436    -0.5053 C.2     
   5 C5             0.7857    -2.6087     0.7906 C.ar    
   6 C6             0.7073    -3.9245     1.2655 C.ar    
   7 C7             0.6354    -4.1608     2.6056 C.ar    
   8 C8             0.6390    -3.1019     3.5155 C.ar    
   9 N9             0.5646    -3.3639     4.8853 N.pl3   
  10 C10           -0.0190    -2.4289     5.7450 C.2     
  11 N11           -0.6246    -1.3271     5.3900 N.2     
  12 N12           -1.0815    -0.6444     6.5214 N.pl3   
  13 H13           -1.5614     0.1986     6.5126 H       
  14 C14           -0.7461    -1.3527     7.6429 C.ar    
  15 N15           -0.9361    -1.1560     8.9422 N.ar    
  16 C16           -0.4859    -2.0384     9.8120 C.ar    
  17 C17            0.1877    -3.1753     9.3821 C.ar    
  18 N18            0.3859    -3.3879     8.0972 N.ar    
  19 C19           -0.0677    -2.5102     7.2064 C.ar    
  20 C20            0.7162    -1.7948     3.0690 C.ar    
  21 C21            0.7957    -1.5370     1.7044 C.ar    
  22 C22            0.8957    -2.8145    -1.7999 C.3     
  23 C23           -0.4657    -3.2866    -2.3143 C.3     
  24 C24            1.9441    -2.4139    -2.8398 C.3     
  25 C25            2.1015    -3.7201    -2.0587 C.3     
  26 H26            1.9422     1.2754     1.6598 H       
  27 H27            0.4504     1.6576     0.7672 H       
  28 H28            0.3562     1.0195     2.4262 H       
  29 H29            0.7036    -4.7508     0.5701 H       
  30 H30            0.5748    -5.1767     2.9672 H       
  31 H31            0.9179    -4.1947     5.2401 H       
  32 H32           -0.6417    -1.8761    10.8683 H       
  33 H33            0.5516    -3.8892    10.1062 H       
  34 H34            0.7186    -0.9788     3.7765 H       
  35 H35           -1.1230    -2.4269    -2.4445 H       
  36 H36           -0.3369    -3.7936    -3.2706 H       
  37 H37           -0.9071    -3.9758    -1.5943 H       
  38 H38            1.6641    -2.4865    -3.8907 H       
  39 H39            2.6150    -1.5928    -2.5875 H       
  40 H40            2.8759    -3.7583    -1.2926 H       
  41 H41            1.9249    -4.6521    -2.5958 H       
@<TRIPOS>BOND
   1    1    2 1
   2    1   26 1
   3    1   27 1
   4    1   28 1
   5    2   21 1
   6    2    3 1
   7    3    4 2
   8    4    5 1
   9    4   22 1
  10    5   21 ar
  11    5    6 ar
  12    6    7 ar
  13    6   29 1
  14    7    8 ar
  15    7   30 1
  16    8    9 1
  17    8   20 ar
  18    9   10 1
  19    9   31 1
  20   10   19 1
  21   10   11 2
  22   11   12 1
  23   12   13 1
  24   12   14 1
  25   14   19 ar
  26   14   15 ar
  27   15   16 ar
  28   16   17 ar
  29   16   32 1
  30   17   18 ar
  31   17   33 1
  32   18   19 ar
  33   20   21 ar
  34   20   34 1
  35   22   25 1
  36   22   23 1
  37   22   24 1
  38   23   35 1
  39   23   36 1
  40   23   37 1
  41   24   25 1
  42   24   38 1
  43   24   39 1
  44   25   40 1
  45   25   41 1

#	End of record

