#	Name: ASD03930094
#	Creating user name:	WinNT
#	Creation time:	15. 06. 2019 20:47

#	Modifying user name:	WinNT
#	Modification time:	15. 06. 2019 20:47

#	Program:	/corina/corina34_cracker 3.40 0067  02.08.2006

@<TRIPOS>MOLECULE
ASD03930094
  35   37    0    0    0
SMALL
NO_CHARGES


@<TRIPOS>ATOM
   1 C1             0.5109     1.4025    -1.0375 C.ar    
   2 C2             0.5314     0.0254    -1.0683 C.ar    
   3 C3             1.2212    -0.6852    -0.0950 C.ar    
   4 C4             1.8975    -0.0056     0.9190 C.ar    
   5 C5             1.8808     1.3751     0.9546 C.ar    
   6 C6             1.1858     2.0889    -0.0249 C.ar    
   7 O7             1.3899    -2.0253     0.0924 O.3     
   8 C8             2.5104    -2.1514     0.9876 C.3     
   9 O9             2.4888    -0.9234     1.7389 O.3     
  10 C10            1.1655     3.5644     0.0093 C.2     
  11 O11            2.2060     4.1843     0.1157 O.2     
  12 C12           -1.2632     3.4937    -0.2895 C.3     
  13 N13           -0.0063     4.2245    -0.0775 N.am    
  14 C14           -0.0513     5.6884     0.0387 C.3     
  15 C15           -1.0595     6.0658     1.1286 C.3     
  16 C16           -2.4102     5.4184     0.8147 C.3     
  17 C17           -2.2578     3.8957     0.8040 C.3     
  18 C18            2.3239    -3.3530     1.9161 C.3     
  19 H19           -0.0234     1.9517    -1.7986 H       
  20 H20            0.0090    -0.5033    -1.8519 H       
  21 H21            2.4033     1.9021     1.7392 H       
  22 H22            3.4406    -2.2406     0.4264 H       
  23 H23           -1.6729     3.7473    -1.2672 H       
  24 H24           -1.0757     2.4212    -0.2366 H       
  25 H25            0.9358     6.0641     0.3081 H       
  26 H26           -0.3621     6.1210    -0.9123 H       
  27 H27           -0.7012     5.7100     2.0945 H       
  28 H28           -1.1737     7.1494     1.1590 H       
  29 H29           -3.1360     5.7054     1.5755 H       
  30 H30           -2.7562     5.7556    -0.1625 H       
  31 H31           -3.2249     3.4346     0.6035 H       
  32 H32           -1.8883     3.5603     1.7731 H       
  33 H33            2.2685    -4.2656     1.3227 H       
  34 H34            3.1685    -3.4165     2.6022 H       
  35 H35            1.4019    -3.2330     2.4850 H       
@<TRIPOS>BOND
   1    1    2 ar
   2    1    6 ar
   3    1   19 1
   4    2    3 ar
   5    2   20 1
   6    3    4 ar
   7    3    7 1
   8    4    5 ar
   9    4    9 1
  10    5    6 ar
  11    5   21 1
  12    6   10 1
  13    7    8 1
  14    8    9 1
  15    8   18 1
  16    8   22 1
  17   10   11 2
  18   10   13 am
  19   12   13 1
  20   12   17 1
  21   12   23 1
  22   12   24 1
  23   13   14 1
  24   14   15 1
  25   14   25 1
  26   14   26 1
  27   15   16 1
  28   15   27 1
  29   15   28 1
  30   16   17 1
  31   16   29 1
  32   16   30 1
  33   17   31 1
  34   17   32 1
  35   18   33 1
  36   18   34 1
  37   18   35 1

#	End of record

