#	Name: ASD01209045
#	Creating user name:	WinNT
#	Creation time:	15. 06. 2019 19:10

#	Modifying user name:	WinNT
#	Modification time:	15. 06. 2019 19:10

#	Program:	/corina/corina34_cracker 3.40 0067  02.08.2006

@<TRIPOS>MOLECULE
ASD01209045
  53   57    0    0    0
SMALL
NO_CHARGES


@<TRIPOS>ATOM
   1 C1            -0.0189     1.5447     0.0105 C.3     
   2 C2             0.0021    -0.0041     0.0020 C.3     
   3 C3            -1.3006    -0.5628    -0.5739 C.3     
   4 C4            -2.4597    -0.2264     0.3665 C.3     
   5 C5            -3.7207    -0.8804    -0.1366 C.2     
   6 N6            -3.7811    -2.2210    -0.2612 N.am    
   7 C7            -4.9446    -2.8244    -0.7253 C.2     
   8 N8            -2.6469     1.2259     0.4108 N.pl3   
   9 N9            -5.1072    -4.1004    -0.8817 N.2     
  10 C10           -6.2811    -4.5028    -1.3333 C.2     
  11 C11           -7.1515    -3.5179    -1.5695 C.2     
  12 S12           -6.3710    -1.9910    -1.1656 S.3     
  13 Cl13          -8.7707    -3.7091    -2.1654 Cl      
  14 C14           -2.5538     2.0057     1.5339 C.ar    
  15 C15           -2.8032     3.3314     1.1287 C.ar    
  16 C16           -3.0497     3.2813    -0.3087 C.2     
  17 N17           -2.9434     2.0397    -0.6875 N.2     
  18 S18           -3.0842     6.0248     1.5837 S.o2    
  19 C19           -1.7018     6.4372     0.4841 C.3     
  20 O20           -2.9996     6.7686     2.7916 O.2     
  21 O21           -4.2998     5.9530     0.8512 O.2     
  22 O22           -4.6813    -0.2003    -0.4293 O.2     
  23 C23            1.1968    -0.3138    -0.9354 C.3     
  24 C24            2.2227     0.7879    -0.5982 C.3     
  25 C25            1.4462     1.9431    -0.0013 C.2     
  26 O26            1.9070     2.9876     0.3923 O.2     
  27 C27           -2.2825     1.7394     2.8734 C.ar    
  28 C28           -2.2606     2.7621     3.7792 C.ar    
  29 C29           -2.5064     4.0703     3.3816 C.ar    
  30 C30           -2.7741     4.3614     2.0751 C.ar    
  31 C31           -1.6125     7.8757    -0.0296 C.3     
  32 C32           -0.6238     7.3777     1.0266 C.3     
  33 H33           -0.5236     1.9234    -0.8782 H       
  34 H34           -0.5065     1.9138     0.9128 H       
  35 H35            0.1800    -0.3949     1.0039 H       
  36 H36           -1.4855    -0.1184    -1.5519 H       
  37 H37           -1.2180    -1.6448    -0.6763 H       
  38 H38           -2.2339    -0.5943     1.3674 H       
  39 H39           -3.0128    -2.7649    -0.0271 H       
  40 H40           -6.5178    -5.5435    -1.4988 H       
  41 H41           -3.2754     4.1239    -0.9455 H       
  42 H42           -1.3834     5.6416    -0.1895 H       
  43 H43            1.6082    -1.2996    -0.7186 H       
  44 H44            0.8917    -0.2463    -1.9797 H       
  45 H45            2.9476     0.4133     0.1245 H       
  46 H46            2.7335     1.1115    -1.5051 H       
  47 H47           -2.0901     0.7268     3.1958 H       
  48 H48           -2.0501     2.5508     4.8172 H       
  49 H49           -2.4845     4.8647     4.1129 H       
  50 H50           -1.2350     8.0264    -1.0409 H       
  51 H51           -2.3844     8.5742     0.2933 H       
  52 H52           -0.7453     7.7487     2.0443 H       
  53 H53            0.4041     7.2009     0.7101 H       
@<TRIPOS>BOND
   1    1    2 1
   2    1   25 1
   3    1   33 1
   4    1   34 1
   5    2    3 1
   6    2   23 1
   7    2   35 1
   8    3    4 1
   9    3   36 1
  10    3   37 1
  11    4    5 1
  12    4    8 1
  13    4   38 1
  14    5    6 am
  15    5   22 2
  16    6    7 1
  17    6   39 1
  18    7    9 2
  19    7   12 1
  20    8   14 1
  21    8   17 1
  22    9   10 1
  23   10   11 2
  24   10   40 1
  25   11   12 1
  26   11   13 1
  27   14   15 ar
  28   14   27 ar
  29   15   16 1
  30   15   30 ar
  31   16   17 2
  32   16   41 1
  33   18   19 1
  34   18   20 2
  35   18   21 2
  36   18   30 1
  37   19   31 1
  38   19   32 1
  39   19   42 1
  40   23   24 1
  41   23   43 1
  42   23   44 1
  43   24   25 1
  44   24   45 1
  45   24   46 1
  46   25   26 2
  47   27   28 ar
  48   27   47 1
  49   28   29 ar
  50   28   48 1
  51   29   30 ar
  52   29   49 1
  53   31   32 1
  54   31   50 1
  55   31   51 1
  56   32   52 1
  57   32   53 1

#	End of record

