#	Name: ASD02508366
#	Creating user name:	WinNT
#	Creation time:	15. 06. 2019 20:24

#	Modifying user name:	WinNT
#	Modification time:	15. 06. 2019 20:24

#	Program:	/corina/corina34_cracker 3.40 0067  02.08.2006

@<TRIPOS>MOLECULE
ASD02508366
  37   39    0    0    0
SMALL
NO_CHARGES


@<TRIPOS>ATOM
   1 C1            -0.1933     1.7616     0.2772 C.2     
   2 C2            -0.1745     0.3619     0.4447 C.2     
   3 C3             1.1137    -0.0336     0.4037 C.2     
   4 N4             1.8938     1.0724     0.2167 N.pl3   
   5 C5             1.0840     2.1703     0.1400 C.2     
   6 C6             3.2886     1.0797     0.1202 C.ar    
   7 C7             4.0287     1.9591     0.9030 C.ar    
   8 N8             3.8924     0.2461    -0.7108 N.ar    
   9 C9             5.2057     0.2197    -0.8323 C.ar    
  10 C10            6.0031     1.0684    -0.0901 C.ar    
  11 C11            5.4097     1.9552     0.7976 C.ar    
  12 S12            1.6914    -1.6905     0.5643 S.o2    
  13 O13            1.6075    -2.2718    -0.7296 O.2     
  14 O14            2.8994    -1.6237     1.3096 O.2     
  15 N15            0.6013    -2.5000     1.5123 N.am    
  16 C16            0.3849    -2.0930     2.8322 C.ar    
  17 C17           -0.9092    -1.9963     3.3262 C.ar    
  18 Cl18           3.2327     3.0472     1.9967 Cl      
  19 C19            1.2486    -1.3884     4.9580 C.ar    
  20 C20            1.4641    -1.7906     3.6519 C.ar    
  21 F21           -0.2531    -0.8939     6.7238 F       
  22 F22           -2.3809    -1.5001     5.1138 F       
  23 F23            2.2984    -1.0937     5.7557 F       
  24 C24           -1.1220    -1.5938     4.6327 C.ar    
  25 C25           -0.0440    -1.2872     5.4483 C.ar    
  26 C26            7.5023     1.0283    -0.2383 C.3     
  27 F27            7.8518     0.0560    -1.1815 F       
  28 F28            7.9624     2.2786    -0.6650 F       
  29 F29            8.0844     0.7129     0.9942 F       
  30 H30           -1.0709     2.3907     0.2576 H       
  31 H31           -1.0347    -0.2767     0.5809 H       
  32 H32            1.4107     3.1893    -0.0057 H       
  33 H33            5.6633    -0.4750    -1.5210 H       
  34 H34            6.0108     2.6294     1.3898 H       
  35 H35            0.1129    -3.2566     1.1518 H       
  36 H36           -1.7493    -2.2348     2.6908 H       
  37 H37            2.4713    -1.8697     3.2702 H       
@<TRIPOS>BOND
   1    1    2 1
   2    1    5 2
   3    1   30 1
   4    2    3 2
   5    2   31 1
   6    3    4 1
   7    3   12 1
   8    4    5 1
   9    4    6 1
  10    5   32 1
  11    6    7 ar
  12    6    8 ar
  13    7   18 1
  14    7   11 ar
  15    8    9 ar
  16    9   10 ar
  17    9   33 1
  18   10   11 ar
  19   10   26 1
  20   11   34 1
  21   12   13 2
  22   12   14 2
  23   12   15 am
  24   15   16 1
  25   15   35 1
  26   16   17 ar
  27   16   20 ar
  28   17   24 ar
  29   17   36 1
  30   19   20 ar
  31   19   23 1
  32   19   25 ar
  33   20   37 1
  34   21   25 1
  35   22   24 1
  36   24   25 ar
  37   26   27 1
  38   26   28 1
  39   26   29 1

#	End of record

