#	Name: ASD05790065
#	Creating user name:	WinNT
#	Creation time:	15. 06. 2019 21:03

#	Modifying user name:	WinNT
#	Modification time:	15. 06. 2019 21:03

#	Program:	/corina/corina34_cracker 3.40 0067  02.08.2006

@<TRIPOS>MOLECULE
ASD05790065
  88   93    0    0    0
SMALL
NO_CHARGES


@<TRIPOS>ATOM
   1 C1             2.8388     1.2103    -1.1388 C.3     
   2 C2             3.1584    -0.2521    -1.3579 C.2     
   3 C3             3.8583    -0.6471    -2.6364 C.3     
   4 C4             5.1129     0.2206    -2.7996 C.3     
   5 C5             4.7103     1.7041    -2.7249 C.3     
   6 C6             4.1190     2.0225    -1.3562 C.3     
   7 C7             5.7410    -0.0847    -4.1626 C.3     
   8 C8             4.7604     0.2597    -5.2982 C.3     
   9 C9             4.4330     1.7346    -5.1827 C.3     
  10 C10            3.7096     1.9575    -3.8289 C.3     
  11 C11            3.3914     2.2737    -6.1715 C.3     
  12 C12            2.8307     3.5124    -5.4764 C.2     
  13 C13            3.1728     3.3750    -3.9866 C.3     
  14 C14            4.0788     2.6486    -7.4713 C.3     
  15 C15            3.1590     3.1823    -8.5144 C.3     
  16 C16            2.7783     4.6353    -8.3691 C.3     
  17 C17            1.6877     4.8344    -7.3314 C.3     
  18 C18            2.1540     4.4666    -5.9692 C.2     
  19 C19            2.2730     5.1715    -9.7363 C.3     
  20 C20            3.2548     6.3058   -10.0564 C.3     
  21 C21            4.4998     5.8371    -9.2524 C.3     
  22 O22            3.9444     5.4187    -8.0129 O.3     
  23 N23            3.6721     6.3933   -11.4516 N.3     
  24 C24            4.6775     7.4618   -11.5910 C.3     
  25 C25            5.9016     7.2231   -10.7119 C.3     
  26 C26            5.4894     6.9825    -9.2478 C.3     
  27 C27            5.9445     2.5772    -2.9599 C.3     
  28 C28            1.7203     5.4627    -4.9248 C.3     
  29 C29            6.8172     8.4469   -10.7819 C.3     
  30 C30            2.3447     4.0785   -10.8044 C.3     
  31 C31            2.5208     6.6356   -12.3312 C.3     
  32 O32            2.8619    -1.0817    -0.5319 O.2     
  33 C33            3.0168     6.9901   -13.7345 C.3     
  34 N34            1.8655     7.2325   -14.6141 N.3     
  35 C35            2.2948     7.8031   -15.8979 C.3     
  36 C36            1.0905     6.0014   -14.8181 C.3     
  37 H37            2.0763     1.5298    -1.8491 H       
  38 H38            2.4783     1.3588    -0.1209 H       
  39 H39            4.1444    -1.6978    -2.5870 H       
  40 H40            3.1907    -0.4873    -3.4831 H       
  41 H41            5.8212    -0.0068    -2.0028 H       
  42 H42            3.8867     3.0860    -1.3007 H       
  43 H43            4.8433     1.7708    -0.5815 H       
  44 H44            6.6494     0.5061    -4.2803 H       
  45 H45            5.9925    -1.1440    -4.2135 H       
  46 H46            5.2255     0.0579    -6.2632 H       
  47 H47            3.8504    -0.3311    -5.1938 H       
  48 H48            5.3469     2.3273    -5.2248 H       
  49 H49            2.8771     1.2598    -3.7377 H       
  50 H50            2.6042     1.5384    -6.3378 H       
  51 H51            2.2779     3.5102    -3.3791 H       
  52 H52            3.9351     4.1014    -3.7051 H       
  53 H53            4.8363     3.4028    -7.2581 H       
  54 H54            4.5770     1.7639    -7.8679 H       
  55 H55            3.6324     3.0493    -9.4872 H       
  56 H56            2.2458     2.5873    -8.5008 H       
  57 H57            1.3824     5.8808    -7.3325 H       
  58 H58            0.8300     4.2148    -7.5932 H       
  59 H59            1.2561     5.5538    -9.6471 H       
  60 H60            2.8830     7.2621    -9.6885 H       
  61 H61            4.9551     4.9830    -9.7538 H       
  62 H62            4.9951     7.5145   -12.6324 H       
  63 H63            4.2232     8.4129   -11.3135 H       
  64 H64            6.4421     6.3510   -11.0798 H       
  65 H65            5.0201     7.8783    -8.8412 H       
  66 H66            6.3638     6.7166    -8.6538 H       
  67 H67            6.4384     2.2677    -3.8810 H       
  68 H68            5.6409     3.6207    -3.0434 H       
  69 H69            6.6336     2.4651    -2.1228 H       
  70 H70            1.1448     6.2582    -5.3983 H       
  71 H71            1.1027     4.9618    -4.1793 H       
  72 H72            2.5995     5.8886    -4.4415 H       
  73 H73            6.2776     9.3251   -10.4272 H       
  74 H74            7.6935     8.2813   -10.1552 H       
  75 H75            7.1326     8.6062   -11.8130 H       
  76 H76            1.9215     3.1553   -10.4086 H       
  77 H77            1.7788     4.3905   -11.6822 H       
  78 H78            3.3850     3.9109   -11.0835 H       
  79 H79            1.9051     5.7375   -12.3796 H       
  80 H80            1.9288     7.4610   -11.9358 H       
  81 H81            3.6325     7.8883   -13.6861 H       
  82 H82            3.6088     6.1647   -14.1299 H       
  83 H83            2.9742     7.1103   -16.3944 H       
  84 H84            1.4230     7.9726   -16.5298 H       
  85 H85            2.8056     8.7498   -15.7220 H       
  86 H86            0.7258     5.6382   -13.8572 H       
  87 H87            0.2442     6.2091   -15.4729 H       
  88 H88            1.7263     5.2433   -15.2754 H       
@<TRIPOS>BOND
   1    1    2 1
   2    1    6 1
   3    1   37 1
   4    1   38 1
   5    2    3 1
   6    2   32 2
   7    3    4 1
   8    3   39 1
   9    3   40 1
  10    4    5 1
  11    4    7 1
  12    4   41 1
  13    5    6 1
  14    5   27 1
  15    5   10 1
  16    6   42 1
  17    6   43 1
  18    7    8 1
  19    7   44 1
  20    7   45 1
  21    8    9 1
  22    8   46 1
  23    8   47 1
  24    9   10 1
  25    9   11 1
  26    9   48 1
  27   10   13 1
  28   10   49 1
  29   11   12 1
  30   11   14 1
  31   11   50 1
  32   12   13 1
  33   12   18 2
  34   13   51 1
  35   13   52 1
  36   14   15 1
  37   14   53 1
  38   14   54 1
  39   15   16 1
  40   15   55 1
  41   15   56 1
  42   16   17 1
  43   16   22 1
  44   16   19 1
  45   17   18 1
  46   17   57 1
  47   17   58 1
  48   18   28 1
  49   19   30 1
  50   19   20 1
  51   19   59 1
  52   20   21 1
  53   20   23 1
  54   20   60 1
  55   21   22 1
  56   21   26 1
  57   21   61 1
  58   23   24 1
  59   23   31 1
  60   24   25 1
  61   24   62 1
  62   24   63 1
  63   25   26 1
  64   25   29 1
  65   25   64 1
  66   26   65 1
  67   26   66 1
  68   27   67 1
  69   27   68 1
  70   27   69 1
  71   28   70 1
  72   28   71 1
  73   28   72 1
  74   29   73 1
  75   29   74 1
  76   29   75 1
  77   30   76 1
  78   30   77 1
  79   30   78 1
  80   31   33 1
  81   31   79 1
  82   31   80 1
  83   33   34 1
  84   33   81 1
  85   33   82 1
  86   34   35 1
  87   34   36 1
  88   35   83 1
  89   35   84 1
  90   35   85 1
  91   36   86 1
  92   36   87 1
  93   36   88 1

#	End of record

