#	Name: ASD07301388
#	Creating user name:	WinNT
#	Creation time:	15. 06. 2019 21:11

#	Modifying user name:	WinNT
#	Modification time:	15. 06. 2019 21:11

#	Program:	/corina/corina34_cracker 3.40 0067  02.08.2006

@<TRIPOS>MOLECULE
ASD07301388
  31   31    0    0    0
SMALL
NO_CHARGES


@<TRIPOS>ATOM
   1 C1             1.2969     0.3936    -0.6682 C.3     
   2 C2             0.0071    -0.0049     0.0015 C.2     
   3 C3             0.0342    -0.8358     1.2058 C.2     
   4 C4            -0.1095    -2.2880     1.0962 C.2     
   5 C5            -0.0816    -3.1437     2.3363 C.3     
   6 O6            -1.0542     0.3634    -0.4578 O.2     
   7 O7            -0.2512    -2.8032     0.0065 O.2     
   8 N8             0.1889    -0.2737     2.3947 N.2     
   9 N9             0.4116     0.9937     2.4849 N.pl3   
  10 C10            0.6803     1.5681     3.7276 C.ar    
  11 C11            0.9205     2.9340     3.8254 C.ar    
  12 C12            1.1857     3.5010     5.0552 C.ar    
  13 C13            1.2132     2.7082     6.1942 C.ar    
  14 C14            0.9740     1.3444     6.0978 C.ar    
  15 C15            0.7025     0.7760     4.8700 C.ar    
  16 O16            1.4749     3.2678     7.4048 O.3     
  17 C17            1.4875     2.3930     8.5347 C.3     
  18 H18            1.6129    -0.3977    -1.3481 H       
  19 H19            1.1452     1.3156    -1.2294 H       
  20 H20            2.0657     0.5510     0.0883 H       
  21 H21           -0.8940    -2.8480     3.0001 H       
  22 H22           -0.2024    -4.1906     2.0582 H       
  23 H23            0.8719    -3.0113     2.8477 H       
  24 H24            0.3923     1.5474     1.6887 H       
  25 H25            0.8999     3.5510     2.9392 H       
  26 H26            1.3723     4.5620     5.1315 H       
  27 H27            0.9964     0.7284     6.9847 H       
  28 H28            0.5117    -0.2844     4.7959 H       
  29 H29            0.5122     1.9171     8.6367 H       
  30 H30            2.2518     1.6287     8.3940 H       
  31 H31            1.7082     2.9660     9.4353 H       
@<TRIPOS>BOND
   1    1    2 1
   2    1   18 1
   3    1   19 1
   4    1   20 1
   5    2    3 1
   6    2    6 2
   7    3    4 1
   8    3    8 2
   9    4    5 1
  10    4    7 2
  11    5   21 1
  12    5   22 1
  13    5   23 1
  14    8    9 1
  15    9   10 1
  16    9   24 1
  17   10   11 ar
  18   10   15 ar
  19   11   12 ar
  20   11   25 1
  21   12   13 ar
  22   12   26 1
  23   13   14 ar
  24   13   16 1
  25   14   15 ar
  26   14   27 1
  27   15   28 1
  28   16   17 1
  29   17   29 1
  30   17   30 1
  31   17   31 1

#	End of record

