#	Name: ASD01882262
#	Creating user name:	WinNT
#	Creation time:	15. 06. 2019 19:44

#	Modifying user name:	WinNT
#	Modification time:	15. 06. 2019 19:44

#	Program:	/corina/corina34_cracker 3.40 0067  02.08.2006

@<TRIPOS>MOLECULE
ASD01882262
  23   23    0    0    0
SMALL
NO_CHARGES


@<TRIPOS>ATOM
   1 C1            -0.0184     1.5085     0.0103 C.2     
   2 C2             0.0021    -0.0041     0.0020 C.3     
   3 C3             0.9051    -0.4727    -1.1438 C.3     
   4 C4             2.2833     0.1756    -1.0023 C.3     
   5 C5             2.1594     1.6935    -1.1441 C.3     
   6 C6             1.3035     2.2437     0.0017 C.3     
   7 O7            -1.0635     2.1135     0.0186 O.2     
   8 C8             2.8649    -0.1610     0.3723 C.3     
   9 C9             3.2128    -0.3628    -2.0918 C.3     
  10 H10            0.3946    -0.3701     0.9507 H       
  11 H11           -1.0086    -0.3831    -0.1499 H       
  12 H12            1.0078    -1.5572    -1.1054 H       
  13 H13            0.4631    -0.1827    -2.0969 H       
  14 H14            3.1511     2.1443    -1.1060 H       
  15 H15            1.6877     1.9323    -2.0973 H       
  16 H16            1.1291     3.3088    -0.1505 H       
  17 H17            1.8165     2.0857     0.9503 H       
  18 H18            2.9595    -1.2423     0.4719 H       
  19 H19            3.8471     0.3006     0.4741 H       
  20 H20            2.2025     0.2190     1.1500 H       
  21 H21            2.7986    -0.1268    -3.0720 H       
  22 H22            4.1953     0.0986    -1.9919 H       
  23 H23            3.3068    -1.4437    -1.9878 H       
@<TRIPOS>BOND
   1    1    2 1
   2    1    6 1
   3    1    7 2
   4    2    3 1
   5    2   10 1
   6    2   11 1
   7    3    4 1
   8    3   12 1
   9    3   13 1
  10    4    5 1
  11    4    8 1
  12    4    9 1
  13    5    6 1
  14    5   14 1
  15    5   15 1
  16    6   16 1
  17    6   17 1
  18    8   18 1
  19    8   19 1
  20    8   20 1
  21    9   21 1
  22    9   22 1
  23    9   23 1

#	End of record

