#	Name: ASD01914140
#	Creating user name:	WinNT
#	Creation time:	15. 06. 2019 20:02

#	Modifying user name:	WinNT
#	Modification time:	15. 06. 2019 20:02

#	Program:	/corina/corina34_cracker 3.40 0067  02.08.2006

@<TRIPOS>MOLECULE
ASD01914140
  44   47    0    0    0
SMALL
NO_CHARGES


@<TRIPOS>ATOM
   1 C1            -2.7506     0.0027    -1.2581 C.2     
   2 C2            -2.1347    -1.2823    -0.8666 C.2     
   3 N3            -2.7697    -2.3441    -0.3168 N.2     
   4 C4            -1.8443    -3.2526    -0.1368 C.2     
   5 O5            -0.6915    -2.7341    -0.5719 O.3     
   6 N6            -0.8723    -1.6105    -0.9913 N.2     
   7 C7            -2.0416    -4.6259     0.4517 C.3     
   8 C8            -1.6316    -5.6849    -0.5742 C.3     
   9 C9            -0.1683    -5.4746    -0.9699 C.3     
  10 C10            0.7192    -5.6321     0.2687 C.3     
  11 N11            0.2393    -4.7176     1.3137 N.am    
  12 C12           -1.1753    -4.7737     1.7065 C.3     
  13 C13            2.1661    -5.2873    -0.0898 C.3     
  14 C14            1.0808    -3.8438     1.9009 C.2     
  15 C15            0.5576    -2.8386     2.8553 C.ar    
  16 C16            1.3378    -2.3899     3.9257 C.ar    
  17 C17            0.8121    -1.4521     4.7923 C.ar    
  18 N18           -0.4072    -0.9801     4.6218 N.ar    
  19 C19           -1.1776    -1.3756     3.6257 C.ar    
  20 C20           -0.7268    -2.3087     2.7071 C.ar    
  21 O21            2.2687    -3.8804     1.6476 O.2     
  22 C22           -2.1033     1.0671    -1.8114 C.2     
  23 C23           -3.0588     2.0730    -2.0243 C.2     
  24 C24           -4.2530     1.6016    -1.5998 C.2     
  25 N25           -4.0764     0.3337    -1.1347 N.pl3   
  26 Cl26          -2.7609     3.6404    -2.7084 Cl      
  27 F27           -2.4196    -0.8597     3.4976 F       
  28 H28           -3.0906    -4.7615     0.7152 H       
  29 H29           -1.7511    -6.6772    -0.1392 H       
  30 H30           -2.2631    -5.5977    -1.4583 H       
  31 H31            0.1163    -6.2147    -1.7179 H       
  32 H32           -0.0432    -4.4734    -1.3822 H       
  33 H33            0.6648    -6.6594     0.6290 H       
  34 H34           -1.3946    -3.9617     2.3997 H       
  35 H35           -1.3843    -5.7310     2.1840 H       
  36 H36            2.2398    -4.2245    -0.3205 H       
  37 H37            2.8153    -5.5218     0.7538 H       
  38 H38            2.4740    -5.8698    -0.9581 H       
  39 H39            2.3373    -2.7717     4.0727 H       
  40 H40            1.4079    -1.1006     5.6217 H       
  41 H41           -1.3616    -2.6287     1.8941 H       
  42 H42           -1.0500     1.1258    -2.0428 H       
  43 H43           -5.1897     2.1384    -1.6290 H       
  44 H44           -4.7708    -0.2375    -0.7707 H       
@<TRIPOS>BOND
   1    1    2 1
   2    1   22 2
   3    1   25 1
   4    2    3 1
   5    2    6 2
   6    3    4 2
   7    4    5 1
   8    4    7 1
   9    5    6 1
  10    7    8 1
  11    7   12 1
  12    7   28 1
  13    8    9 1
  14    8   29 1
  15    8   30 1
  16    9   10 1
  17    9   31 1
  18    9   32 1
  19   10   11 1
  20   10   13 1
  21   10   33 1
  22   11   12 1
  23   11   14 am
  24   12   34 1
  25   12   35 1
  26   13   36 1
  27   13   37 1
  28   13   38 1
  29   14   15 1
  30   14   21 2
  31   15   16 ar
  32   15   20 ar
  33   16   17 ar
  34   16   39 1
  35   17   18 ar
  36   17   40 1
  37   18   19 ar
  38   19   20 ar
  39   19   27 1
  40   20   41 1
  41   22   23 1
  42   22   42 1
  43   23   24 2
  44   23   26 1
  45   24   25 1
  46   24   43 1
  47   25   44 1

#	End of record

