#	Name: ASD05740032
#	Creating user name:	WinNT
#	Creation time:	15. 06. 2019 21:02

#	Modifying user name:	WinNT
#	Modification time:	15. 06. 2019 21:02

#	Program:	/corina/corina34_cracker 3.40 0067  02.08.2006

@<TRIPOS>MOLECULE
ASD05740032
  45   48    0    0    0
SMALL
NO_CHARGES


@<TRIPOS>ATOM
   1 C1            -0.0225     1.8097     0.0120 C.3     
   2 C2             1.0867     0.4471     3.6203 C.ar    
   3 C3             4.0649     0.3746     5.2987 C.3     
   4 C4             3.8511    -1.2433     7.2289 C.2     
   5 C5             3.1340    -1.7802     8.2878 C.2     
   6 C6             3.2914    -0.2138     6.4504 C.2     
   7 C7             2.0413     0.2479     6.7479 C.2     
   8 C8             1.3421    -0.3149     7.8239 C.2     
   9 O9             1.8869    -1.2950     8.5566 O.3     
  10 C10            1.4209     1.3502     5.9287 C.3     
  11 C11            0.5496     0.7494     4.8559 C.ar    
  12 C12           -0.7870     0.5011     5.1103 C.ar    
  13 O13            0.2249     0.0920     8.0961 O.2     
  14 C14            0.2828    -0.1072     2.6320 C.ar    
  15 C15           -1.0591    -0.3553     2.8908 C.ar    
  16 C16           -1.5899    -0.0505     4.1290 C.ar    
  17 N17            0.8226    -0.4138     1.3808 N.am    
  18 S18            0.0021    -0.0041     0.0020 S.o2    
  19 O19           -1.3056    -0.5216     0.2056 O.2     
  20 O20            0.8248    -0.4858    -1.0517 O.2     
  21 C21            3.8230    -2.7847     8.9557 C.2     
  22 C22            5.0430    -3.0692     8.4821 C.2     
  23 S23            5.4168    -2.0397     7.1099 S.3     
  24 O24            5.8717    -4.0125     8.9918 O.3     
  25 C25            7.0795    -4.1846     8.4014 C.2     
  26 N26            7.5106    -3.5094     7.3834 N.2     
  27 S27            8.2587    -5.3192     8.8964 S.3     
  28 C28            9.3325    -4.7813     7.6076 C.2     
  29 C29            8.7158    -3.8081     6.9347 C.2     
  30 H30            1.0001     2.1870     0.0043 H       
  31 H31           -0.5497     2.1708    -0.8711 H       
  32 H32           -0.5327     2.1613     0.9088 H       
  33 H33            2.1293     0.6458     3.4207 H       
  34 H34            5.0331    -0.1200     5.2208 H       
  35 H35            3.5069     0.2286     4.3739 H       
  36 H36            4.2143     1.4409     5.4684 H       
  37 H37            0.8156     1.9862     6.5746 H       
  38 H38            2.2078     1.9461     5.4663 H       
  39 H39           -1.2045     0.7381     6.0778 H       
  40 H40           -1.6868    -0.7861     2.1247 H       
  41 H41           -2.6331    -0.2435     4.3311 H       
  42 H42            1.6782    -0.8667     1.3196 H       
  43 H43            3.4014    -3.3034     9.8039 H       
  44 H44           10.3189    -5.1692     7.4003 H       
  45 H45            9.1653    -3.3066     6.0905 H       
@<TRIPOS>BOND
   1    1   18 1
   2    1   30 1
   3    1   31 1
   4    1   32 1
   5    2   11 ar
   6    2   14 ar
   7    2   33 1
   8    3    6 1
   9    3   34 1
  10    3   35 1
  11    3   36 1
  12    4    5 2
  13    4    6 1
  14    4   23 1
  15    5   21 1
  16    5    9 1
  17    6    7 2
  18    7    8 1
  19    7   10 1
  20    8    9 1
  21    8   13 2
  22   10   11 1
  23   10   37 1
  24   10   38 1
  25   11   12 ar
  26   12   16 ar
  27   12   39 1
  28   14   15 ar
  29   14   17 1
  30   15   16 ar
  31   15   40 1
  32   16   41 1
  33   17   18 am
  34   17   42 1
  35   18   19 2
  36   18   20 2
  37   21   22 2
  38   21   43 1
  39   22   23 1
  40   22   24 1
  41   24   25 1
  42   25   27 1
  43   25   26 2
  44   26   29 1
  45   27   28 1
  46   28   29 2
  47   28   44 1
  48   29   45 1

#	End of record

