#	Name: ASD03090927
#	Creating user name:	WinNT
#	Creation time:	15. 06. 2019 20:29

#	Modifying user name:	WinNT
#	Modification time:	15. 06. 2019 20:29

#	Program:	/corina/corina34_cracker 3.40 0067  02.08.2006

@<TRIPOS>MOLECULE
ASD03090927
  46   49    0    0    0
SMALL
NO_CHARGES


@<TRIPOS>ATOM
   1 N1            -0.0169     1.2507     0.0909 N.am    
   2 C2             0.0064    -0.0966     0.0619 C.2     
   3 O3            -1.0379    -0.7247     0.0835 O.2     
   4 N4             1.1742    -0.7435     0.0095 N.2     
   5 C5             1.2383     2.0057     0.0650 C.3     
   6 S6            -0.1574    -3.1371     0.0030 S.3     
   7 C7             1.1972    -2.0740    -0.0191 C.2     
   8 N8             2.2928    -2.8728    -0.0723 N.pl3   
   9 C9             2.0749    -4.2168    -0.0937 C.2     
  10 C10            0.8116    -4.6193    -0.0605 C.2     
  11 C11            0.3063    -6.0391    -0.0744 C.3     
  12 O12            7.4896    -1.0140    -0.1792 O.3     
  13 C13            8.1259    -2.2678    -0.4891 C.3     
  14 O14            7.1947    -3.2532    -0.0045 O.3     
  15 C15            5.9687    -2.6554    -0.0612 C.ar    
  16 C16            6.1496    -1.2780    -0.1687 C.ar    
  17 C17            4.6892    -3.1828    -0.0291 C.ar    
  18 C18            3.5889    -2.3392    -0.1043 C.ar    
  19 C19            3.7723    -0.9675    -0.2116 C.ar    
  20 C20            5.0492    -0.4399    -0.2441 C.ar    
  21 F21            8.3063    -2.3994    -1.8702 F       
  22 F22            9.3495    -2.3768     0.1803 F       
  23 C23           -1.2975     1.9602     0.1423 C.3     
  24 C24           -1.7550     2.0680     1.5741 C.ar    
  25 C25           -2.9978     2.6023     1.8651 C.ar    
  26 C26           -3.4173     2.7004     3.1796 C.ar    
  27 C27           -2.5948     2.2647     4.2017 C.ar    
  28 C28           -1.3533     1.7315     3.9104 C.ar    
  29 C29           -0.9358     1.6279     2.5963 C.ar    
  30 Cl30          -4.0300     3.1498     0.5811 Cl      
  31 H31            1.5624     2.1365    -0.9675 H       
  32 H32            1.0845     2.9823     0.5240 H       
  33 H33            2.0021     1.4600     0.6191 H       
  34 H34            2.8922    -4.9216    -0.1357 H       
  35 H35           -0.7831    -6.0374    -0.0391 H       
  36 H36            0.6396    -6.5344    -0.9864 H       
  37 H37            0.6971    -6.5723     0.7923 H       
  38 H38            4.5468    -4.2501     0.0538 H       
  39 H39            2.9161    -0.3118    -0.2700 H       
  40 H40            5.1894     0.6277    -0.3271 H       
  41 H41           -1.1765     2.9592    -0.2766 H       
  42 H42           -2.0405     1.4113    -0.4362 H       
  43 H43           -4.3871     3.1177     3.4074 H       
  44 H44           -2.9222     2.3413     5.2280 H       
  45 H45           -0.7108     1.3919     4.7093 H       
  46 H46            0.0325     1.2071     2.3691 H       
@<TRIPOS>BOND
   1    1    2 am
   2    1    5 1
   3    1   23 1
   4    2    3 2
   5    2    4 1
   6    4    7 2
   7    5   31 1
   8    5   32 1
   9    5   33 1
  10    6    7 1
  11    6   10 1
  12    7    8 1
  13    8    9 1
  14    8   18 1
  15    9   10 2
  16    9   34 1
  17   10   11 1
  18   11   35 1
  19   11   36 1
  20   11   37 1
  21   12   13 1
  22   12   16 1
  23   13   14 1
  24   13   21 1
  25   13   22 1
  26   14   15 1
  27   15   16 ar
  28   15   17 ar
  29   16   20 ar
  30   17   18 ar
  31   17   38 1
  32   18   19 ar
  33   19   20 ar
  34   19   39 1
  35   20   40 1
  36   23   24 1
  37   23   41 1
  38   23   42 1
  39   24   25 ar
  40   24   29 ar
  41   25   26 ar
  42   25   30 1
  43   26   27 ar
  44   26   43 1
  45   27   28 ar
  46   27   44 1
  47   28   29 ar
  48   28   45 1
  49   29   46 1

#	End of record

