#	Name: ASD05503048
#	Creating user name:	WinNT
#	Creation time:	15. 06. 2019 21:01

#	Modifying user name:	WinNT
#	Modification time:	15. 06. 2019 21:01

#	Program:	/corina/corina34_cracker 3.40 0067  02.08.2006

@<TRIPOS>MOLECULE
ASD05503048
  38   40    0    0    0
SMALL
NO_CHARGES


@<TRIPOS>ATOM
   1 C1             0.0013     1.3384    -0.0290 C.ar    
   2 C2            -0.0205    -0.0549    -0.0388 C.ar    
   3 C3             1.1634    -0.7724    -0.0924 C.ar    
   4 C4             2.3739    -0.0969    -0.1368 C.ar    
   5 C5             2.3927     1.3098    -0.1273 C.ar    
   6 C6             1.1860     2.0153    -0.0724 C.ar    
   7 N7            -1.2445    -0.7328     0.0062 N.am    
   8 C8            -2.2698    -0.2257     0.7189 C.2     
   9 O9            -2.1045     0.7651     1.3988 O.2     
  10 C10           -3.6219    -0.8896     0.6711 C.3     
  11 C11           -4.5995    -0.1207     1.5621 C.3     
  12 C12           -5.9721    -0.7948     1.5136 C.3     
  13 N13            3.6939    -0.4998    -0.1937 N.pl3   
  14 C14            4.4626     0.6338    -0.2168 C.2     
  15 N15            3.6922     1.6928    -0.1776 N.2     
  16 C16            5.9399     0.6586    -0.2762 C.ar    
  17 C17            6.6640    -0.5321    -0.2073 C.ar    
  18 C18            8.0423    -0.5023    -0.2632 C.ar    
  19 C19            8.7071     0.7047    -0.3868 C.ar    
  20 C20            7.9960     1.8894    -0.4557 C.ar    
  21 C21            6.6163     1.8733    -0.4072 C.ar    
  22 Br22           5.6456     3.4934    -0.5015 Br      
  23 H23           -0.9277     1.8877     0.0087 H       
  24 H24            1.1438    -1.8522    -0.0991 H       
  25 H25            1.1916     3.0953    -0.0651 H       
  26 H26           -1.3546    -1.5675    -0.4755 H       
  27 H27           -3.9897    -0.8913    -0.3550 H       
  28 H28           -3.5354    -1.9160     1.0277 H       
  29 H29           -4.2316    -0.1190     2.5882 H       
  30 H30           -4.6859     0.9057     1.2055 H       
  31 H31           -6.3400    -0.7964     0.4875 H       
  32 H32           -5.8857    -1.8211     1.8702 H       
  33 H33           -6.6686    -0.2470     2.1484 H       
  34 H34            4.0163    -1.4144    -0.2130 H       
  35 H35            6.1467    -1.4751    -0.1100 H       
  36 H36            8.6036    -1.4234    -0.2099 H       
  37 H37            9.7861     0.7222    -0.4294 H       
  38 H38            8.5209     2.8282    -0.5522 H       
@<TRIPOS>BOND
   1    1    2 ar
   2    1    6 ar
   3    1   23 1
   4    2    3 ar
   5    2    7 1
   6    3    4 ar
   7    3   24 1
   8    4    5 ar
   9    4   13 1
  10    5    6 ar
  11    5   15 1
  12    6   25 1
  13    7    8 am
  14    7   26 1
  15    8    9 2
  16    8   10 1
  17   10   11 1
  18   10   27 1
  19   10   28 1
  20   11   12 1
  21   11   29 1
  22   11   30 1
  23   12   31 1
  24   12   32 1
  25   12   33 1
  26   13   14 1
  27   13   34 1
  28   14   15 2
  29   14   16 1
  30   16   17 ar
  31   16   21 ar
  32   17   18 ar
  33   17   35 1
  34   18   19 ar
  35   18   36 1
  36   19   20 ar
  37   19   37 1
  38   20   21 ar
  39   20   38 1
  40   21   22 1

#	End of record

