#	Name: ASD01890127
#	Creating user name:	WinNT
#	Creation time:	15. 06. 2019 19:50

#	Modifying user name:	WinNT
#	Modification time:	15. 06. 2019 19:50

#	Program:	/corina/corina34_cracker 3.40 0067  02.08.2006

@<TRIPOS>MOLECULE
ASD01890127
  63   65    0    0    0
SMALL
NO_CHARGES


@<TRIPOS>ATOM
   1 C1            -0.0184     1.5028     0.0103 C.2     
   2 C2             0.0021    -0.0041     0.0020 C.3     
   3 C3            -0.7132    -0.5094    -1.2244 C.2     
   4 O4             1.0197     2.1211     0.0037 O.2     
   5 O5            -1.1898     2.1580     0.0194 O.3     
   6 O6            -1.1905     0.2737    -2.0110 O.2     
   7 O7            -0.8199    -1.8295    -1.4429 O.3     
   8 C8             1.4513    -0.4944    -0.0145 C.3     
   9 C9             2.1775     0.0187     1.2307 C.3     
  10 C10            3.6341    -0.3599     1.1544 C.2     
  11 C11            1.4717    -2.0012    -0.0227 C.ar    
  12 C12            2.0697    -2.6786    -1.0689 C.ar    
  13 C13            2.0884    -4.0608    -1.0765 C.ar    
  14 C14            1.5095    -4.7656    -0.0378 C.ar    
  15 C15            0.9124    -4.0882     1.0089 C.ar    
  16 C16            0.8975    -2.7060     1.0186 C.ar    
  17 O17            4.0505    -0.9790     0.1984 O.2     
  18 C18            5.8921    -0.3296     2.1643 C.ar    
  19 C19            4.5508     0.0215     2.2393 C.ar    
  20 C20            4.0623     0.7410     3.3475 C.ar    
  21 C21            4.8893     1.1041     4.3598 C.ar    
  22 C22            6.2538     0.7627     4.3124 C.ar    
  23 C23            7.1277     1.1293     5.3490 C.ar    
  24 C24            8.4433     0.7859     5.2763 C.ar    
  25 C25            8.9405     0.0740     4.1862 C.ar    
  26 C26            8.1248    -0.2988     3.1627 C.ar    
  27 C27            6.7593     0.0378     3.2028 C.ar    
  28 C28           -1.1335     3.6089     0.0270 C.3     
  29 O29           -0.7669     4.0860    -1.2945 O.3     
  30 C30           -1.7147     4.0390    -2.2439 C.2     
  31 O31           -2.8141     3.6133    -1.9794 O.2     
  32 C32           -1.4074     4.5172    -3.6396 C.3     
  33 C33           -1.5220    -2.2441    -2.6444 C.3     
  34 O34           -0.6730    -2.0237    -3.8015 O.3     
  35 C35            0.3389    -2.8858    -3.9880 C.2     
  36 O36            0.5095    -3.7945    -3.2101 O.2     
  37 C37            1.2621    -2.7202    -5.1675 C.3     
  38 H38           -0.4983    -0.3791     0.8948 H       
  39 H39            1.9516    -0.1193    -0.9073 H       
  40 H40            2.0863     1.1036     1.2833 H       
  41 H41            1.7324    -0.4269     2.1203 H       
  42 H42            2.5219    -2.1279    -1.8805 H       
  43 H43            2.5550    -4.5900    -1.8942 H       
  44 H44            1.5235    -5.8455    -0.0441 H       
  45 H45            0.4598    -4.6389     1.8203 H       
  46 H46            0.4342    -2.1767     1.8382 H       
  47 H47            6.2631    -0.8848     1.3155 H       
  48 H48            3.0166     1.0073     3.3915 H       
  49 H49            4.5002     1.6558     5.2027 H       
  50 H50            6.7579     1.6818     6.2002 H       
  51 H51            9.1119     1.0698     6.0756 H       
  52 H52            9.9884    -0.1852     4.1531 H       
  53 H53            8.5235    -0.8505     2.3242 H       
  54 H54           -2.1100     4.0090     0.2998 H       
  55 H55           -0.3898     3.9399     0.7520 H       
  56 H56           -1.0285     3.6854    -4.2334 H       
  57 H57           -2.3161     4.9070    -4.0984 H       
  58 H58           -0.6554     5.3050    -3.5964 H       
  59 H59           -1.7707    -3.3029    -2.5727 H       
  60 H60           -2.4375    -1.6621    -2.7493 H       
  61 H61            2.0993    -2.0812    -4.8868 H       
  62 H62            1.6372    -3.6963    -5.4751 H       
  63 H63            0.7175    -2.2635    -5.9939 H       
@<TRIPOS>BOND
   1    1    2 1
   2    1    4 2
   3    1    5 1
   4    2    3 1
   5    2    8 1
   6    2   38 1
   7    3    6 2
   8    3    7 1
   9    5   28 1
  10    7   33 1
  11    8    9 1
  12    8   11 1
  13    8   39 1
  14    9   10 1
  15    9   40 1
  16    9   41 1
  17   10   17 2
  18   10   19 1
  19   11   12 ar
  20   11   16 ar
  21   12   13 ar
  22   12   42 1
  23   13   14 ar
  24   13   43 1
  25   14   15 ar
  26   14   44 1
  27   15   16 ar
  28   15   45 1
  29   16   46 1
  30   18   19 ar
  31   18   27 ar
  32   18   47 1
  33   19   20 ar
  34   20   21 ar
  35   20   48 1
  36   21   22 ar
  37   21   49 1
  38   22   23 ar
  39   22   27 ar
  40   23   24 ar
  41   23   50 1
  42   24   25 ar
  43   24   51 1
  44   25   26 ar
  45   25   52 1
  46   26   27 ar
  47   26   53 1
  48   28   29 1
  49   28   54 1
  50   28   55 1
  51   29   30 1
  52   30   31 2
  53   30   32 1
  54   32   56 1
  55   32   57 1
  56   32   58 1
  57   33   34 1
  58   33   59 1
  59   33   60 1
  60   34   35 1
  61   35   36 2
  62   35   37 1
  63   37   61 1
  64   37   62 1
  65   37   63 1

#	End of record

