#	Name: ASD01880090
#	Creating user name:	WinNT
#	Creation time:	15. 06. 2019 19:40

#	Modifying user name:	WinNT
#	Modification time:	15. 06. 2019 19:40

#	Program:	/corina/corina34_cracker 3.40 0067  02.08.2006

@<TRIPOS>MOLECULE
ASD01880090
  54   55    0    0    0
SMALL
NO_CHARGES


@<TRIPOS>ATOM
   1 C1             0.6785     0.9972    -1.8104 C.ar    
   2 C2             0.8509    -0.3366    -2.1277 C.ar    
   3 N3             2.0528    -0.8796    -2.1301 N.ar    
   4 C4             3.1303    -0.1800    -1.8333 C.ar    
   5 C5             3.0356     1.1596    -1.5062 C.ar    
   6 C6             1.7887     1.7651    -1.4926 C.ar    
   7 C7             4.2722     1.9517    -1.1677 C.3     
   8 N8             4.8224     2.5440    -2.3895 N.am    
   9 C9             4.3306     3.7650    -2.8564 C.ar    
  10 S10            6.0273     1.7657    -3.2170 S.o2    
  11 C11            5.1519     0.7028    -4.3979 C.3     
  12 O12            6.7142     2.8071    -3.8975 O.2     
  13 O13            6.6806     0.9809    -2.2289 O.2     
  14 C14            3.7406     4.6596    -1.9744 C.ar    
  15 C15            3.2538     5.8704    -2.4416 C.ar    
  16 C16            3.3571     6.1854    -3.7892 C.ar    
  17 C17            3.9449     5.2934    -4.6663 C.ar    
  18 C18            4.4365     4.0883    -4.2038 C.ar    
  19 O19            2.6752     6.7483    -1.5807 O.3     
  20 C20            2.0995     7.9277    -2.1461 C.3     
  21 C21            3.1698     8.7208    -2.8508 C.2     
  22 O22            2.8579     9.8754    -3.4603 O.3     
  23 O23            4.3086     8.3175    -2.8671 O.2     
  24 C24            3.9392    10.5861    -4.1190 C.3     
  25 C25            3.3955    11.8685    -4.7521 C.3     
  26 C26            1.0127     7.5345    -3.1487 C.3     
  27 C27            1.4835     8.7784    -1.0336 C.3     
  28 C28            6.1528    -0.2282    -5.0852 C.3     
  29 F29            6.7869    -1.0226    -4.1239 F       
  30 F30            5.4777    -1.0480    -5.9959 F       
  31 F31            7.1089     0.5345    -5.7642 F       
  32 H32           -0.3078     1.4371    -1.8141 H       
  33 H33           -0.0086    -0.9415    -2.3763 H       
  34 H34            4.0980    -0.6594    -1.8455 H       
  35 H35            1.6843     2.8102    -1.2409 H       
  36 H36            4.0152     2.7434    -0.4640 H       
  37 H37            5.0142     1.2922    -0.7176 H       
  38 H38            4.4070     0.1085    -3.8688 H       
  39 H39            4.6579     1.3217    -5.1469 H       
  40 H40            3.6607     4.4126    -0.9260 H       
  41 H41            2.9774     7.1286    -4.1531 H       
  42 H42            4.0237     5.5410    -5.7146 H       
  43 H43            4.8956     3.3933    -4.8912 H       
  44 H44            4.7065    10.8392    -3.3873 H       
  45 H45            4.3711     9.9530    -4.8941 H       
  46 H46            2.6283    11.6154    -5.4838 H       
  47 H47            2.9637    12.5016    -3.9770 H       
  48 H48            4.2073    12.4020    -5.2465 H       
  49 H49            0.1749     7.0826    -2.6177 H       
  50 H50            0.6699     8.4225    -3.6797 H       
  51 H51            1.4191     6.8183    -3.8629 H       
  52 H52            2.2692     9.1190    -0.3593 H       
  53 H53            0.9814     9.6410    -1.4716 H       
  54 H54            0.7610     8.1811    -0.4774 H       
@<TRIPOS>BOND
   1    1    2 ar
   2    1    6 ar
   3    1   32 1
   4    2    3 ar
   5    2   33 1
   6    3    4 ar
   7    4    5 ar
   8    4   34 1
   9    5    6 ar
  10    5    7 1
  11    6   35 1
  12    7    8 1
  13    7   36 1
  14    7   37 1
  15    8    9 1
  16    8   10 am
  17    9   14 ar
  18    9   18 ar
  19   10   11 1
  20   10   12 2
  21   10   13 2
  22   11   28 1
  23   11   38 1
  24   11   39 1
  25   14   15 ar
  26   14   40 1
  27   15   16 ar
  28   15   19 1
  29   16   17 ar
  30   16   41 1
  31   17   18 ar
  32   17   42 1
  33   18   43 1
  34   19   20 1
  35   20   21 1
  36   20   26 1
  37   20   27 1
  38   21   22 1
  39   21   23 2
  40   22   24 1
  41   24   25 1
  42   24   44 1
  43   24   45 1
  44   25   46 1
  45   25   47 1
  46   25   48 1
  47   26   49 1
  48   26   50 1
  49   26   51 1
  50   27   52 1
  51   27   53 1
  52   27   54 1
  53   28   29 1
  54   28   30 1
  55   28   31 1

#	End of record

