#	Name: ASD02440058
#	Creating user name:	WinNT
#	Creation time:	15. 06. 2019 20:21

#	Modifying user name:	WinNT
#	Modification time:	15. 06. 2019 20:21

#	Program:	/corina/corina34_cracker 3.40 0067  02.08.2006

@<TRIPOS>MOLECULE
ASD02440058
  31   32    0    0    0
SMALL
NO_CHARGES


@<TRIPOS>ATOM
   1 C1             0.1873     1.9178     0.0752 C.ar    
   2 C2             1.2634    -0.2236     0.1012 C.ar    
   3 C3             5.8845    -0.9272    -0.9483 C.ar    
   4 C4             6.5107    -0.3038    -3.1592 C.2     
   5 C5             6.0739    -1.9224     0.0090 C.ar    
   6 C6             5.1017    -2.1569     0.9693 C.ar    
   7 C7             3.9441    -1.4056     0.9813 C.ar    
   8 C8             3.7487    -0.4088     0.0268 C.ar    
   9 C9             2.5070     0.4026     0.0438 C.ar    
  10 C10            2.5803     1.7956     0.0019 C.ar    
  11 C11            1.4199     2.5465     0.0181 C.ar    
  12 C12            0.1110     0.5347     0.1165 C.ar    
  13 C13            4.7264    -0.1676    -0.9361 C.ar    
  14 C14            7.5684     0.0724    -4.1645 C.3     
  15 F15            3.7828     2.4089    -0.0534 F       
  16 F16           -0.9443     2.6555     0.0964 F       
  17 N17            6.8676    -0.6914    -1.9187 N.am    
  18 O18            7.2131    -2.6644     0.0008 O.3     
  19 O19            5.3382    -0.2577    -3.4664 O.2     
  20 S20            6.7769     0.5449    -5.7269 S.3     
  21 H21            1.2019    -1.3014     0.1335 H       
  22 H22            5.2507    -2.9292     1.7094 H       
  23 H23            3.1884    -1.5908     1.7304 H       
  24 H24            1.4746     3.6246    -0.0143 H       
  25 H25           -0.8528     0.0494     0.1610 H       
  26 H26            4.5777     0.6043    -1.6767 H       
  27 H27            8.1498     0.9119    -3.7834 H       
  28 H28            8.2277    -0.7789    -4.3341 H       
  29 H29            7.8049    -0.8072    -1.6976 H       
  30 H30            7.9292    -2.2915     0.5329 H       
  31 H31            7.8226     0.8500    -6.5157 H       
@<TRIPOS>BOND
   1    1   12 ar
   2    1   11 ar
   3    1   16 1
   4    2   21 1
   5    2    9 ar
   6    2   12 ar
   7    3   17 1
   8    3    5 ar
   9    3   13 ar
  10    4   14 1
  11    4   17 am
  12    4   19 2
  13    5   18 1
  14    5    6 ar
  15    6   22 1
  16    6    7 ar
  17    7   23 1
  18    7    8 ar
  19    8   13 ar
  20    8    9 1
  21    9   10 ar
  22   10   11 ar
  23   10   15 1
  24   11   24 1
  25   12   25 1
  26   13   26 1
  27   14   20 1
  28   14   27 1
  29   14   28 1
  30   17   29 1
  31   18   30 1
  32   20   31 1

#	End of record

