#	Name: ASD01810665
#	Creating user name:	WinNT
#	Creation time:	15. 06. 2019 19:25

#	Modifying user name:	WinNT
#	Modification time:	15. 06. 2019 19:25

#	Program:	/corina/corina34_cracker 3.40 0067  02.08.2006

@<TRIPOS>MOLECULE
ASD01810665
  65   69    0    0    0
SMALL
NO_CHARGES


@<TRIPOS>ATOM
   1 C1             0.0621     1.1934     0.1841 C.ar    
   2 C2            -0.1117    -0.1674    -0.0749 C.ar    
   3 C3            -1.3799    -0.6818    -0.2606 C.ar    
   4 C4            -2.4835     0.1446    -0.1920 C.ar    
   5 C5            -2.3238     1.5080     0.0665 C.ar    
   6 C6            -1.0476     2.0321     0.2604 C.ar    
   7 C7            -3.5068     2.3920     0.1392 C.2     
   8 N8            -4.6740     1.9179     0.6181 N.am    
   9 O9            -3.4267     3.5464    -0.2330 O.2     
  10 C10           -4.7572     0.5632     1.1808 C.3     
  11 C11           -5.8860     2.7480     0.5930 C.3     
  12 C12           -6.4739     2.8052     2.0064 C.3     
  13 C13           -6.6982     1.3808     2.5193 C.3     
  14 C14           -5.3601     0.6493     2.5865 C.3     
  15 C15           -7.3082     1.4333     3.8963 C.ar    
  16 C16           -8.5447     0.8556     4.1242 C.ar    
  17 C17           -9.1087     0.8996     5.3823 C.ar    
  18 C18           -8.4287     1.5288     6.4271 C.ar    
  19 C19           -7.1813     2.1096     6.1900 C.ar    
  20 C20           -6.6266     2.0538     4.9282 C.ar    
  21 C21           -9.0084     1.5786     7.7356 C.1     
  22 C22            1.4212     1.7424     0.3833 C.2     
  23 N23            2.5327     1.0405     0.4527 N.2     
  24 C24            3.5635     1.8669     0.6380 C.2     
  25 C25            3.0862     3.1319     0.6825 C.2     
  26 N26            1.7370     3.0650     0.5205 N.pl3   
  27 C27            5.0204     1.5022     0.7835 C.3     
  28 C28            5.8716     2.7517     0.5266 C.3     
  29 N29            5.2921     3.8897     1.2554 N.am    
  30 C30            3.9480     4.3560     0.8686 C.3     
  31 N31           -9.4682     1.6182     8.7736 N.1     
  32 C32            1.0873    -1.0770    -0.1526 C.3     
  33 C33            5.9722     4.4911     2.2515 C.2     
  34 O34            7.0791     4.0941     2.5575 O.2     
  35 O35            5.4252     5.5319     2.9075 O.3     
  36 C36            6.2147     6.1307     3.9688 C.3     
  37 H37           -1.5088    -1.7352    -0.4607 H       
  38 H38           -3.4725    -0.2637    -0.3388 H       
  39 H39           -0.9185     3.0854     0.4610 H       
  40 H40           -5.3923    -0.0569     0.5482 H       
  41 H41           -3.7590     0.1291     1.2373 H       
  42 H42           -5.6323     3.7550     0.2617 H       
  43 H43           -6.6150     2.3098    -0.0886 H       
  44 H44           -5.7809     3.3251     2.6679 H       
  45 H45           -7.4247     3.3376     1.9837 H       
  46 H46           -7.3718     0.8535     1.8438 H       
  47 H47           -5.5150    -0.3577     2.9737 H       
  48 H48           -4.6814     1.1922     3.2444 H       
  49 H49           -9.0696     0.3696     3.3151 H       
  50 H50          -10.0740     0.4486     5.5588 H       
  51 H51           -6.6502     2.5982     6.9936 H       
  52 H52           -5.6618     2.5026     4.7434 H       
  53 H53            1.1179     3.8116     0.5109 H       
  54 H54            5.2060     1.1351     1.7929 H       
  55 H55            5.2776     0.7297     0.0588 H       
  56 H56            6.8896     2.5766     0.8746 H       
  57 H57            5.8835     2.9710    -0.5411 H       
  58 H58            4.0039     4.9159    -0.0650 H       
  59 H59            3.5330     4.9857     1.6556 H       
  60 H60            1.3736    -1.3874     0.8523 H       
  61 H61            0.8387    -1.9559    -0.7474 H       
  62 H62            1.9169    -0.5455    -0.6189 H       
  63 H63            7.1526     6.5039     3.5576 H       
  64 H64            5.6590     6.9561     4.4136 H       
  65 H65            6.4253     5.3814     4.7320 H       
@<TRIPOS>BOND
   1    1    2 ar
   2    1   22 1
   3    1    6 ar
   4    2    3 ar
   5    2   32 1
   6    3    4 ar
   7    3   37 1
   8    4    5 ar
   9    4   38 1
  10    5    6 ar
  11    5    7 1
  12    6   39 1
  13    7    8 am
  14    7    9 2
  15    8   10 1
  16    8   11 1
  17   10   14 1
  18   10   40 1
  19   10   41 1
  20   11   12 1
  21   11   42 1
  22   11   43 1
  23   12   13 1
  24   12   44 1
  25   12   45 1
  26   13   14 1
  27   13   15 1
  28   13   46 1
  29   14   47 1
  30   14   48 1
  31   15   16 ar
  32   15   20 ar
  33   16   17 ar
  34   16   49 1
  35   17   18 ar
  36   17   50 1
  37   18   19 ar
  38   18   21 1
  39   19   20 ar
  40   19   51 1
  41   20   52 1
  42   21   31 3
  43   22   23 2
  44   22   26 1
  45   23   24 1
  46   24   25 2
  47   24   27 1
  48   25   26 1
  49   25   30 1
  50   26   53 1
  51   27   28 1
  52   27   54 1
  53   27   55 1
  54   28   29 1
  55   28   56 1
  56   28   57 1
  57   29   30 1
  58   29   33 am
  59   30   58 1
  60   30   59 1
  61   32   60 1
  62   32   61 1
  63   32   62 1
  64   33   34 2
  65   33   35 1
  66   35   36 1
  67   36   63 1
  68   36   64 1
  69   36   65 1

#	End of record

