#	Name: ASD01340004
#	Creating user name:	WinNT
#	Creation time:	15. 06. 2019 19:16

#	Modifying user name:	WinNT
#	Modification time:	15. 06. 2019 19:16

#	Program:	/corina/corina34_cracker 3.40 0067  02.08.2006

@<TRIPOS>MOLECULE
ASD01340004
  73   76    0    0    0
SMALL
NO_CHARGES


@<TRIPOS>ATOM
   1 C1             2.3893     7.6004    -0.2928 C.3     
   2 C2             1.0146     6.9292    -0.1888 C.3     
   3 C3             0.7518     6.1663    -1.4855 C.3     
   4 C4             1.9160     5.2702    -1.8182 C.ar    
   5 C5             3.1608     5.4320    -1.2533 C.ar    
   6 C6             3.4607     6.5127    -0.2477 C.3     
   7 C7             4.8229     7.1330    -0.5647 C.3     
   8 C8             3.4998     5.9008     1.1541 C.3     
   9 C9            -0.5095     5.3156    -1.3236 C.3     
  10 C10            0.5425     7.1655    -2.6252 C.3     
  11 C11            1.7039     4.2473    -2.7339 C.ar    
  12 C12            2.7306     3.3950    -3.0831 C.ar    
  13 C13            3.9818     3.5599    -2.5185 C.ar    
  14 C14            4.1943     4.5744    -1.6084 C.ar    
  15 C15            2.4895     2.2883    -4.0771 C.3     
  16 C16            5.1098     2.6347    -2.8964 C.3     
  17 C17            5.7713     3.1366    -4.1540 C.2     
  18 C18            6.8109     3.9982    -4.2062 C.2     
  19 C19            7.1143     4.1978    -5.5621 C.2     
  20 C20            6.2333     3.4384    -6.2775 C.2     
  21 O21            5.4293     2.7977    -5.4039 O.3     
  22 C22            6.1749     3.3334    -7.7390 C.2     
  23 O23            6.9607     3.9596    -8.4260 O.2     
  24 N24            5.2511     2.5436    -8.3215 N.am    
  25 C25            5.1259     2.5233    -9.7202 C.ar    
  26 C26            4.3439     3.4775   -10.3638 C.ar    
  27 C27            4.2223     3.4557   -11.7443 C.ar    
  28 C28            4.8792     2.4838   -12.4841 C.ar    
  29 C29            5.6589     1.5314   -11.8450 C.ar    
  30 C30            5.7882     1.5524   -10.4652 C.ar    
  31 O31            3.6993     4.4304    -9.6389 O.3     
  32 C32            2.9141     5.3778   -10.3656 C.3     
  33 O33            6.5531     0.6186    -9.8391 O.3     
  34 C34            7.1947    -0.3546   -10.6656 C.3     
  35 O35            4.7584     2.4645   -13.8382 O.3     
  36 C36            5.4619     1.4360   -14.5377 C.3     
  37 H37            2.4606     8.1473    -1.2329 H       
  38 H38            2.5271     8.2864     0.5430 H       
  39 H39            1.0070     6.2365     0.6528 H       
  40 H40            0.2453     7.6883    -0.0470 H       
  41 H41            4.8025     7.5618    -1.5666 H       
  42 H42            5.0434     7.9158     0.1611 H       
  43 H43            5.5931     6.3634    -0.5144 H       
  44 H44            4.2767     5.1374     1.1957 H       
  45 H45            3.7166     6.6800     1.8848 H       
  46 H46            2.5340     5.4490     1.3804 H       
  47 H47           -1.3583     5.9627    -1.1020 H       
  48 H48           -0.7005     4.7694    -2.2473 H       
  49 H49           -0.3685     4.6086    -0.5060 H       
  50 H50            1.4353     7.7805    -2.7377 H       
  51 H51            0.3546     6.6246    -3.5527 H       
  52 H52           -0.3116     7.8032    -2.3970 H       
  53 H53            0.7269     4.1182    -3.1758 H       
  54 H54            5.1721     4.7029    -1.1683 H       
  55 H55            2.6946     2.6528    -5.0837 H       
  56 H56            3.1481     1.4491    -3.8533 H       
  57 H57            1.4513     1.9624    -4.0133 H       
  58 H58            5.8409     2.6043    -2.0885 H       
  59 H59            4.7160     1.6329    -3.0680 H       
  60 H60            7.3139     4.4485    -3.3632 H       
  61 H61            7.8934     4.8299    -5.9621 H       
  62 H62            4.6728     1.9891    -7.7746 H       
  63 H63            3.6152     4.1959   -12.2442 H       
  64 H64            6.1692     0.7753   -12.4232 H       
  65 H65            3.5530     5.9215   -11.0615 H       
  66 H66            2.1351     4.8548   -10.9203 H       
  67 H67            2.4554     6.0797    -9.6692 H       
  68 H68            7.7715    -1.0375   -10.0419 H       
  69 H69            6.4410    -0.9158   -11.2180 H       
  70 H70            7.8610     0.1471   -11.3674 H       
  71 H71            5.2805     1.5349   -15.6079 H       
  72 H72            6.5300     1.5275   -14.3402 H       
  73 H73            5.1119     0.4610   -14.1985 H       
@<TRIPOS>BOND
   1    1    2 1
   2    1    6 1
   3    1   37 1
   4    1   38 1
   5    2    3 1
   6    2   39 1
   7    2   40 1
   8    3    4 1
   9    3    9 1
  10    3   10 1
  11    4    5 ar
  12    4   11 ar
  13    5    6 1
  14    5   14 ar
  15    6    7 1
  16    6    8 1
  17    7   41 1
  18    7   42 1
  19    7   43 1
  20    8   44 1
  21    8   45 1
  22    8   46 1
  23    9   47 1
  24    9   48 1
  25    9   49 1
  26   10   50 1
  27   10   51 1
  28   10   52 1
  29   11   12 ar
  30   11   53 1
  31   12   13 ar
  32   12   15 1
  33   13   14 ar
  34   13   16 1
  35   14   54 1
  36   15   55 1
  37   15   56 1
  38   15   57 1
  39   16   17 1
  40   16   58 1
  41   16   59 1
  42   17   18 2
  43   17   21 1
  44   18   19 1
  45   18   60 1
  46   19   20 2
  47   19   61 1
  48   20   21 1
  49   20   22 1
  50   22   23 2
  51   22   24 am
  52   24   25 1
  53   24   62 1
  54   25   26 ar
  55   25   30 ar
  56   26   27 ar
  57   26   31 1
  58   27   28 ar
  59   27   63 1
  60   28   29 ar
  61   28   35 1
  62   29   30 ar
  63   29   64 1
  64   30   33 1
  65   31   32 1
  66   32   65 1
  67   32   66 1
  68   32   67 1
  69   33   34 1
  70   34   68 1
  71   34   69 1
  72   34   70 1
  73   35   36 1
  74   36   71 1
  75   36   72 1
  76   36   73 1

#	End of record

