#	Name: ASD00111023
#	Creating user name:	WinNT
#	Creation time:	15. 06. 2019 18:30

#	Modifying user name:	WinNT
#	Modification time:	15. 06. 2019 18:30

#	Program:	/corina/corina34_cracker 3.40 0067  02.08.2006

@<TRIPOS>MOLECULE
ASD00111023
  41   42    0    0    0
SMALL
NO_CHARGES


@<TRIPOS>ATOM
   1 C1             0.0187     1.4141     0.1010 C.ar    
   2 C2             0.0519     0.0265     0.1057 C.ar    
   3 C3            -1.1352    -0.6863     0.1058 C.ar    
   4 C4            -2.3538    -0.0220     0.1010 C.ar    
   5 C5            -2.3857     1.3526     0.0743 C.ar    
   6 C6            -1.1949     2.0695     0.0906 C.ar    
   7 C7            -3.6077    -0.8545     0.1555 C.3     
   8 C8            -4.5949    -0.4144    -0.9290 C.3     
   9 N9            -5.5006     0.5746    -0.3413 N.3     
  10 C10           -4.8189     1.3891     0.6729 C.3     
  11 C11           -3.6697     2.1424     0.0050 C.3     
  12 Br12           1.6310     2.4021     0.1166 Br      
  13 O13            1.2427    -0.6288     0.1098 O.3     
  14 C14           -3.4717     3.4845     0.7125 C.3     
  15 C15           -4.7026     4.3653     0.4892 C.3     
  16 C16           -3.2796     3.2472     2.2117 C.3     
  17 C17            1.1972    -2.0571     0.1145 C.3     
  18 C18            2.6013    -2.6044     0.1186 C.2     
  19 C19            2.9190    -3.5870     0.9246 C.2     
  20 H20           -1.1127    -1.7660     0.1092 H       
  21 H21           -1.2201     3.1492     0.0868 H       
  22 H22           -3.3500    -1.9026     0.0028 H       
  23 H23           -4.0737    -0.7386     1.1340 H       
  24 H24           -4.0522     0.0321    -1.7621 H       
  25 H25           -5.1656    -1.2747    -1.2788 H       
  26 H26           -5.9129     1.1565    -1.0550 H       
  27 H27           -5.5225     2.1020     1.1027 H       
  28 H28           -4.4252     0.7424     1.4571 H       
  29 H29           -3.9213     2.3243    -1.0398 H       
  30 H30           -2.5905     3.9821     0.3076 H       
  31 H31           -5.5944     3.8347     0.8228 H       
  32 H32           -4.5959     5.2895     1.0571 H       
  33 H33           -4.7944     4.5992    -0.5715 H       
  34 H34           -2.4590     2.5467     2.3665 H       
  35 H35           -3.0477     4.1925     2.7024 H       
  36 H36           -4.1952     2.8334     2.6344 H       
  37 H37            0.6707    -2.4009     1.0049 H       
  38 H38            0.6735    -2.4069    -0.7751 H       
  39 H39            3.3457    -2.1865    -0.5430 H       
  40 H40            2.1746    -4.0048     1.5862 H       
  41 H41            3.9252    -3.9792     0.9275 H       
@<TRIPOS>BOND
   1    1    2 ar
   2    1   12 1
   3    1    6 ar
   4    2    3 ar
   5    2   13 1
   6    3    4 ar
   7    3   20 1
   8    4    5 ar
   9    4    7 1
  10    5    6 ar
  11    5   11 1
  12    6   21 1
  13    7    8 1
  14    7   22 1
  15    7   23 1
  16    8    9 1
  17    8   24 1
  18    8   25 1
  19    9   10 1
  20    9   26 1
  21   10   11 1
  22   10   27 1
  23   10   28 1
  24   11   14 1
  25   11   29 1
  26   13   17 1
  27   14   15 1
  28   14   16 1
  29   14   30 1
  30   15   31 1
  31   15   32 1
  32   15   33 1
  33   16   34 1
  34   16   35 1
  35   16   36 1
  36   17   18 1
  37   17   37 1
  38   17   38 1
  39   18   19 2
  40   18   39 1
  41   19   40 1
  42   19   41 1

#	End of record

