#	Name: ASD09116174
#	Creating user name:	WinNT
#	Creation time:	15. 06. 2019 21:20

#	Modifying user name:	WinNT
#	Modification time:	15. 06. 2019 21:20

#	Program:	/corina/corina34_cracker 3.40 0067  02.08.2006

@<TRIPOS>MOLECULE
ASD09116174
  72   78    0    0    0
SMALL
NO_CHARGES


@<TRIPOS>ATOM
   1 N1            -0.0204     1.4721     0.0388 N.2     
   2 C2            -0.0025    -0.0013     0.0592 C.3     
   3 C3             1.2273     1.8558     0.0249 C.2     
   4 N4             2.0927     0.8214     0.0335 N.2     
   5 C5             1.4773    -0.3320     0.0538 C.2     
   6 N6             1.6191     3.1791     0.0037 N.pl3   
   7 C7             2.9773     3.5091     0.0982 C.ar    
   8 C8             3.4650     4.6341    -0.5524 C.ar    
   9 C9             3.8345     2.7136     0.8477 C.ar    
  10 C10            5.1744     3.0394     0.9407 C.ar    
  11 C11            5.6632     4.1637     0.2837 C.ar    
  12 C12            4.8044     4.9602    -0.4602 C.ar    
  13 N13            2.0448    -1.5681     0.0668 N.pl3   
  14 C14           -0.6593    -0.5235     1.3110 C.ar    
  15 C15           -1.2845     0.3630     2.1638 C.ar    
  16 N16           -0.6275    -1.8252     1.5642 N.ar    
  17 C17           -1.1844    -2.3087     2.6353 C.ar    
  18 C18           -1.8352    -1.4829     3.5594 C.ar    
  19 C19           -1.8974    -0.1174     3.3314 C.ar    
  20 C20           -1.2153    -3.7729     3.0332 C.3     
  21 C21           -0.5813    -3.8487     4.4375 C.3     
  22 C22           -1.2964    -2.8697     5.3713 C.3     
  23 N23           -2.3758    -2.1642     4.6528 N.3     
  24 C24           -3.3613    -3.1530     4.1733 C.3     
  25 C25           -2.5764     0.7962     4.2818 C.ar    
  26 C26           -1.9267     1.9430     4.7351 C.ar    
  27 N27            7.0212     4.4951     0.3778 N.3     
  28 C28            7.3761     4.8775     1.7516 C.3     
  29 C29            8.8793     5.1542     1.8292 C.3     
  30 N30            9.2277     6.2222     0.8817 N.3     
  31 C31            8.8728     5.8399    -0.4922 C.3     
  32 C32            7.3695     5.5631    -0.5697 C.3     
  33 C33           -2.5637     2.7899     5.6192 C.ar    
  34 C34           -3.8445     2.5025     6.0554 C.ar    
  35 C35           -4.4942     1.3658     5.6089 C.ar    
  36 C36           -3.8690     0.5145     4.7207 C.ar    
  37 C37           -2.7039    -4.1391     3.2053 C.3     
  38 F38            6.0088     2.2664     1.6698 F       
  39 C39            9.2266     6.9621    -1.4337 C.2     
  40 O40            9.3760     8.0831    -1.0083 O.2     
  41 O41            9.3758     6.7163    -2.7448 O.3     
  42 H42           -0.4924    -0.4041    -0.8273 H       
  43 H43            0.9540     3.8806    -0.0766 H       
  44 H44            2.7970     5.2547    -1.1314 H       
  45 H45            3.4541     1.8410     1.3578 H       
  46 H46            5.1838     5.8332    -0.9704 H       
  47 H47            3.0106    -1.6584     0.0608 H       
  48 H48            1.4838    -2.3592     0.0821 H       
  49 H49           -1.3018     1.4183     1.9348 H       
  50 H50           -0.7022    -4.4093     2.3122 H       
  51 H51           -0.6812    -4.8617     4.8273 H       
  52 H52            0.4746    -3.5856     4.3744 H       
  53 H53           -1.7224    -3.4192     6.2107 H       
  54 H54           -0.5780    -2.1409     5.7467 H       
  55 H55           -3.7655    -3.7002     5.0250 H       
  56 H56           -4.1723    -2.6339     3.6624 H       
  57 H57           -0.9265     2.1682     4.3954 H       
  58 H58            6.8260     5.7755     2.0328 H       
  59 H59            7.1201     4.0658     2.4326 H       
  60 H60            9.1400     5.4661     2.8406 H       
  61 H61            9.4295     4.2484     1.5744 H       
  62 H62            8.7873     7.0926     1.1400 H       
  63 H63            9.4229     4.9418    -0.7733 H       
  64 H64            7.1089     5.2512    -1.5811 H       
  65 H65            6.8194     6.4689    -0.3150 H       
  66 H66           -2.0610     3.6786     5.9714 H       
  67 H67           -4.3390     3.1679     6.7475 H       
  68 H68           -5.4942     1.1464     5.9528 H       
  69 H69           -4.3772    -0.3727     4.3727 H       
  70 H70           -3.2049    -4.0883     2.2386 H       
  71 H71           -2.7859    -5.1500     3.6048 H       
  72 H72            9.6029     7.4679    -3.3093 H       
@<TRIPOS>BOND
   1    1    2 1
   2    1    3 2
   3    2   14 1
   4    2    5 1
   5    2   42 1
   6    3    4 1
   7    3    6 1
   8    4    5 2
   9    5   13 1
  10    6    7 1
  11    6   43 1
  12    7    8 ar
  13    7    9 ar
  14    8   12 ar
  15    8   44 1
  16    9   10 ar
  17    9   45 1
  18   10   11 ar
  19   10   38 1
  20   11   12 ar
  21   11   27 1
  22   12   46 1
  23   13   47 1
  24   13   48 1
  25   14   15 ar
  26   14   16 ar
  27   15   19 ar
  28   15   49 1
  29   16   17 ar
  30   17   18 ar
  31   17   20 1
  32   18   19 ar
  33   18   23 1
  34   19   25 1
  35   20   21 1
  36   20   37 1
  37   20   50 1
  38   21   22 1
  39   21   51 1
  40   21   52 1
  41   22   23 1
  42   22   53 1
  43   22   54 1
  44   23   24 1
  45   24   37 1
  46   24   55 1
  47   24   56 1
  48   25   26 ar
  49   25   36 ar
  50   26   33 ar
  51   26   57 1
  52   27   28 1
  53   27   32 1
  54   28   29 1
  55   28   58 1
  56   28   59 1
  57   29   30 1
  58   29   60 1
  59   29   61 1
  60   30   31 1
  61   30   62 1
  62   31   32 1
  63   31   39 1
  64   31   63 1
  65   32   64 1
  66   32   65 1
  67   33   34 ar
  68   33   66 1
  69   34   35 ar
  70   34   67 1
  71   35   36 ar
  72   35   68 1
  73   36   69 1
  74   37   70 1
  75   37   71 1
  76   39   40 2
  77   39   41 1
  78   41   72 1

#	End of record

