#	Name: ASD00070093
#	Creating user name:	WinNT
#	Creation time:	15. 06. 2019 18:30

#	Modifying user name:	WinNT
#	Modification time:	15. 06. 2019 18:30

#	Program:	/corina/corina34_cracker 3.40 0067  02.08.2006

@<TRIPOS>MOLECULE
ASD00070093
  71   74    0    0    0
SMALL
NO_CHARGES


@<TRIPOS>ATOM
   1 C1            -0.0083     1.5090     0.0234 C.2     
   2 C2             0.0228     0.0057     0.1242 C.3     
   3 C3             1.4446    -0.4938    -0.1401 C.3     
   4 C4             2.3993     0.1180     0.8870 C.3     
   5 O5             0.9795     2.1132    -0.3373 O.2     
   6 N6            -1.1356     2.1817     0.3288 N.am    
   7 C7             1.4793    -2.0189    -0.0235 C.3     
   8 O8             1.8485    -0.1073    -1.4552 O.3     
   9 C9            -1.1659     3.6431     0.2309 C.3     
  10 C10           -2.6061     4.1097     0.0093 C.3     
  11 C11           -2.6377     5.6359    -0.0931 C.3     
  12 C12           -2.0978     6.2452     1.2024 C.3     
  13 C13           -0.6577     5.7787     1.4240 C.3     
  14 C14           -0.6260     4.2524     1.5263 C.3     
  15 C15           -2.1295     7.7715     1.1000 C.3     
  16 C16           -1.7079     8.3812     2.4385 C.3     
  17 N17           -1.7383     9.8466     2.3402 N.3     
  18 C18           -1.5718    10.4662     3.6611 C.3     
  19 C19           -1.7535    11.9810     3.5420 C.3     
  20 C20           -0.7179    12.5389     2.5618 C.3     
  21 C21           -0.8813    11.8426     1.2079 C.3     
  22 C22           -0.7249    10.3317     1.3946 C.3     
  23 O23            1.0037    16.9595     2.9710 O.3     
  24 C24            2.1325    16.0693     2.9869 C.3     
  25 C25            1.4797    14.6927     3.2556 C.3     
  26 C26            0.0759    14.9026     2.7217 C.ar    
  27 C27           -0.1050    16.2728     2.5807 C.ar    
  28 C28           -0.9303    14.0215     2.3945 C.ar    
  29 C29           -2.1366    14.4977     1.9115 C.ar    
  30 C30           -2.3258    15.8587     1.7595 C.ar    
  31 C31           -1.3200    16.7436     2.0898 C.ar    
  32 H32           -0.2891    -0.2979     1.1235 H       
  33 H33           -0.6557    -0.4220    -0.6138 H       
  34 H34            2.0913    -0.1768     1.8902 H       
  35 H35            3.4123    -0.2378     0.6987 H       
  36 H36            2.3747     1.2046     0.8040 H       
  37 H37           -1.9269     1.6982     0.6135 H       
  38 H38            0.7983    -2.4548    -0.7546 H       
  39 H39            2.4919    -2.3749    -0.2129 H       
  40 H40            1.1722    -2.3137     0.9799 H       
  41 H41            1.8501     0.8487    -1.6012 H       
  42 H42           -0.5470     3.9640    -0.6071 H       
  43 H43           -2.9907     3.6756    -0.9137 H       
  44 H44           -3.2249     3.7888     0.8472 H       
  45 H45           -2.0188     5.9568    -0.9310 H       
  46 H46           -3.6637     5.9683    -0.2510 H       
  47 H47           -2.7167     5.9243     2.0403 H       
  48 H48           -0.0388     6.0995     0.5860 H       
  49 H49           -0.2731     6.2127     2.3469 H       
  50 H50           -1.2449     3.9315     2.3642 H       
  51 H51            0.4000     3.9200     1.6842 H       
  52 H52           -1.4420     8.0976     0.3196 H       
  53 H53           -3.1398     8.0982     0.8541 H       
  54 H54           -2.3954     8.0550     3.2189 H       
  55 H55           -0.6975     8.0544     2.6844 H       
  56 H56           -2.3168    10.0638     4.3475 H       
  57 H57           -0.5735    10.2489     4.0409 H       
  58 H58           -2.7564    12.1995     3.1753 H       
  59 H59           -1.6144    12.4422     4.5198 H       
  60 H60            0.2848    12.3549     2.9474 H       
  61 H61           -1.8706    12.0589     0.8044 H       
  62 H62           -0.1191    12.2049     0.5180 H       
  63 H63            0.2694    10.1151     1.7851 H       
  64 H64           -0.8549     9.8318     0.4348 H       
  65 H65            2.6414    16.0738     2.0229 H       
  66 H66            2.8212    16.3333     3.7895 H       
  67 H67            1.9922    13.9042     2.7045 H       
  68 H68            1.4616    14.4717     4.3228 H       
  69 H69           -2.9273    13.8086     1.6538 H       
  70 H70           -3.2658    16.2313     1.3800 H       
  71 H71           -1.4762    17.8053     1.9683 H       
@<TRIPOS>BOND
   1    1    2 1
   2    1    5 2
   3    1    6 am
   4    2    3 1
   5    2   32 1
   6    2   33 1
   7    3    4 1
   8    3    7 1
   9    3    8 1
  10    4   34 1
  11    4   35 1
  12    4   36 1
  13    6    9 1
  14    6   37 1
  15    7   38 1
  16    7   39 1
  17    7   40 1
  18    8   41 1
  19    9   10 1
  20    9   14 1
  21    9   42 1
  22   10   11 1
  23   10   43 1
  24   10   44 1
  25   11   12 1
  26   11   45 1
  27   11   46 1
  28   12   13 1
  29   12   15 1
  30   12   47 1
  31   13   14 1
  32   13   48 1
  33   13   49 1
  34   14   50 1
  35   14   51 1
  36   15   16 1
  37   15   52 1
  38   15   53 1
  39   16   17 1
  40   16   54 1
  41   16   55 1
  42   17   18 1
  43   17   22 1
  44   18   19 1
  45   18   56 1
  46   18   57 1
  47   19   20 1
  48   19   58 1
  49   19   59 1
  50   20   21 1
  51   20   28 1
  52   20   60 1
  53   21   22 1
  54   21   61 1
  55   21   62 1
  56   22   63 1
  57   22   64 1
  58   23   24 1
  59   23   27 1
  60   24   25 1
  61   24   65 1
  62   24   66 1
  63   25   26 1
  64   25   67 1
  65   25   68 1
  66   26   27 ar
  67   26   28 ar
  68   27   31 ar
  69   28   29 ar
  70   29   30 ar
  71   29   69 1
  72   30   31 ar
  73   30   70 1
  74   31   71 1

#	End of record

