#	Name: ASD01840360
#	Creating user name:	WinNT
#	Creation time:	15. 06. 2019 19:37

#	Modifying user name:	WinNT
#	Modification time:	15. 06. 2019 19:37

#	Program:	/corina/corina34_cracker 3.40 0067  02.08.2006

@<TRIPOS>MOLECULE
ASD01840360
  46   49    0    0    0
SMALL
NO_CHARGES


@<TRIPOS>ATOM
   1 C1            -0.2602     2.8151    -1.0573 C.ar    
   2 C2            -0.2828     1.6421    -1.7793 C.ar    
   3 N3             0.7682     0.8402    -1.7790 N.ar    
   4 N4             1.8374     1.1032    -1.1248 N.ar    
   5 C5             0.9106     3.1242    -0.3281 C.ar    
   6 C6             1.2181     4.2689     0.5091 C.2     
   7 C7             1.9715     2.2107    -0.3915 C.ar    
   8 S8             3.3196     2.7854     0.5795 S.3     
   9 C9             2.4565     4.2331     1.0606 C.2     
  10 C10           -1.4465     3.7445    -1.0501 C.3     
  11 C11           -1.5099     1.2715    -2.5717 C.3     
  12 N12            0.3241     5.3087     0.7258 N.pl3   
  13 C13            3.0008     5.2669     1.9398 C.2     
  14 O14            2.3290     6.2427     2.2207 O.2     
  15 N15            4.2461     5.1397     2.4391 N.am    
  16 C16            5.1188     5.9286     3.3217 C.3     
  17 C17            5.3280     4.1478     2.3465 C.3     
  18 C18            6.3216     5.2906     2.6128 C.3     
  19 C19            6.7711     6.0253     1.3763 C.ar    
  20 O20            7.3964     4.9373     3.4858 O.3     
  21 C21            7.8656     6.0166     4.2963 C.3     
  22 C22            8.1184     6.2337     1.1476 C.ar    
  23 C23            8.5308     6.9077     0.0134 C.ar    
  24 C24            7.5960     7.3729    -0.8925 C.ar    
  25 C25            6.2487     7.1637    -0.6643 C.ar    
  26 C26            5.8365     6.4859     0.4678 C.ar    
  27 H27           -2.0758     3.5237    -0.1879 H       
  28 H28           -1.0995     4.7761    -0.9920 H       
  29 H29           -2.0223     3.6058    -1.9651 H       
  30 H30           -1.4278     1.6778    -3.5798 H       
  31 H31           -1.5950     0.1861    -2.6233 H       
  32 H32           -2.3944     1.6827    -2.0852 H       
  33 H33           -0.6237     5.1739     0.5695 H       
  34 H34            0.6472     6.1700     1.0336 H       
  35 H35            5.0407     7.0039     3.1611 H       
  36 H36            5.0375     5.6519     4.3728 H       
  37 H37            5.3018     3.4016     3.1406 H       
  38 H38            5.4280     3.7059     1.3552 H       
  39 H39            8.1294     6.8611     3.6596 H       
  40 H40            7.0814     6.3166     4.9914 H       
  41 H41            8.7439     5.6954     4.8561 H       
  42 H42            8.8488     5.8703     1.8553 H       
  43 H43            9.5834     7.0712    -0.1649 H       
  44 H44            7.9181     7.9001    -1.7783 H       
  45 H45            5.5183     7.5274    -1.3718 H       
  46 H46            4.7842     6.3192     0.6443 H       
@<TRIPOS>BOND
   1    1    2 ar
   2    1    5 ar
   3    1   10 1
   4    2   11 1
   5    2    3 ar
   6    3    4 ar
   7    4    7 ar
   8    5    7 ar
   9    5    6 1
  10    6    9 2
  11    6   12 1
  12    7    8 1
  13    8    9 1
  14    9   13 1
  15   10   27 1
  16   10   28 1
  17   10   29 1
  18   11   30 1
  19   11   31 1
  20   11   32 1
  21   12   33 1
  22   12   34 1
  23   13   14 2
  24   13   15 am
  25   15   16 1
  26   15   17 1
  27   16   18 1
  28   16   35 1
  29   16   36 1
  30   17   18 1
  31   17   37 1
  32   17   38 1
  33   18   19 1
  34   18   20 1
  35   19   22 ar
  36   19   26 ar
  37   20   21 1
  38   21   39 1
  39   21   40 1
  40   21   41 1
  41   22   23 ar
  42   22   42 1
  43   23   24 ar
  44   23   43 1
  45   24   25 ar
  46   24   44 1
  47   25   26 ar
  48   25   45 1
  49   26   46 1

#	End of record

