#	Name: ASD01208568
#	Creating user name:	WinNT
#	Creation time:	15. 06. 2019 19:10

#	Modifying user name:	WinNT
#	Modification time:	15. 06. 2019 19:10

#	Program:	/corina/corina34_cracker 3.40 0067  02.08.2006

@<TRIPOS>MOLECULE
ASD01208568
  98  100    0    0    0
SMALL
NO_CHARGES


@<TRIPOS>ATOM
   1 N1            -1.1590    -1.4141     4.4932 N.pl3   
   2 C2            -0.8284    -2.7474     4.4001 C.2     
   3 C3            -0.0345    -3.0664     5.4836 C.2     
   4 C4             0.1182    -1.9090     6.2447 C.2     
   5 C5            -0.5823    -0.9011     5.6180 C.2     
   6 C6            -1.2463    -3.6667     3.3376 C.2     
   7 O7            -0.8885    -4.8297     3.3636 O.2     
   8 N8            -2.0267    -3.2240     2.3318 N.am    
   9 C9            -0.6903     0.4972     6.0849 C.ar    
  10 C10           -0.0481     0.8946     7.2586 C.ar    
  11 C11           -0.1514     2.2057     7.6923 C.ar    
  12 C12           -0.8922     3.1239     6.9618 C.ar    
  13 C13           -1.5326     2.7331     5.7947 C.ar    
  14 C14           -1.4297     1.4248     5.3506 C.ar    
  15 O15           -2.2575     3.6360     5.0834 O.3     
  16 C16           -4.4035     4.4962     4.5000 C.ar    
  17 C17           -3.6046     3.6547     5.2613 C.ar    
  18 C18           -4.2028     2.8303     6.2089 C.ar    
  19 C19           -5.5799     2.8844     6.3535 C.ar    
  20 C20           -6.3085     3.7487     5.5582 C.ar    
  21 N21           -5.7105     4.5169     4.6685 N.ar    
  22 S22           -8.0600     3.8245     5.7348 S.o2    
  23 O23           -8.5216     4.2638     4.4647 O.2     
  24 O24           -8.4168     2.5459     6.2419 O.2     
  25 C25           -8.3333     5.1058     6.9894 C.3     
  26 O26            0.4732     2.5935     8.8353 O.3     
  27 C27            0.3038     3.9541     9.2376 C.3     
  28 C28            1.4995     4.3871    10.0884 C.3     
  29 C29           -0.9808     4.0873    10.0581 C.3     
  30 O30            1.5181     3.6334    11.3024 O.3     
  31 C31            2.6017     3.9621    12.1740 C.3     
  32 C32           -2.4443    -4.1427     1.2699 C.3     
  33 C33           -3.6979    -4.8992     1.7139 C.3     
  34 C34           -4.1341    -5.8587     0.6048 C.3     
  35 C35           -2.7516    -3.3477    -0.0007 C.3     
  36 O36           -3.8779    -2.4987     0.2294 O.3     
  37 Si37          -4.3413    -1.6423    -1.0791 Si      
  38 C38           -5.8376    -0.6178    -0.6526 C.3     
  39 C39           -6.8407    -1.4769     0.1198 C.3     
  40 C40           -5.4124     0.5710     0.2116 C.3     
  41 C41           -2.9520    -0.5210    -1.6113 C.3     
  42 C42           -2.2560     0.0510    -0.3746 C.3     
  43 C43           -1.9433    -1.3173    -2.4415 C.3     
  44 C44           -4.7635    -2.8101    -2.4679 C.3     
  45 C45           -5.9360    -3.6989    -2.0483 C.3     
  46 C46           -5.1522    -2.0058    -3.7101 C.3     
  47 O47           -3.4110    -5.6418     2.9006 O.3     
  48 H48           -1.7067    -0.9211     3.8625 H       
  49 H49            0.3899    -4.0353     5.7015 H       
  50 H50            0.6836    -1.8183     7.1604 H       
  51 H51           -2.3118    -2.2971     2.3111 H       
  52 H52            0.5283     0.1805     7.8279 H       
  53 H53           -0.9707     4.1457     7.3029 H       
  54 H54           -1.9247     1.1223     4.4397 H       
  55 H55           -3.9491     5.1436     3.7646 H       
  56 H56           -3.6085     2.1641     6.8167 H       
  57 H57           -6.0781     2.2584     7.0790 H       
  58 H58           -7.9183     6.0511     6.6398 H       
  59 H59           -9.4030     5.2211     7.1640 H       
  60 H60           -7.8428     4.8152     7.9184 H       
  61 H61            0.2379     4.5888     8.3539 H       
  62 H62            2.4220     4.2088     9.5359 H       
  63 H63            1.4146     5.4486    10.3210 H       
  64 H64           -0.9149     3.4526    10.9418 H       
  65 H65           -1.1100     5.1252    10.3650 H       
  66 H66           -1.8326     3.7788     9.4520 H       
  67 H67            3.5472     3.7750    11.6648 H       
  68 H68            2.5397     5.0148    12.4499 H       
  69 H69            2.5449     3.3471    13.0722 H       
  70 H70           -1.6431    -4.8538     1.0687 H       
  71 H71           -4.4992    -4.1881     1.9151 H       
  72 H72           -3.3329    -6.5698     0.4036 H       
  73 H73           -5.0272    -6.3976     0.9211 H       
  74 H74           -4.3531    -5.2923    -0.3003 H       
  75 H75           -1.8869    -2.7399    -0.2670 H       
  76 H76           -2.9762    -4.0366    -0.8149 H       
  77 H77           -6.3015    -0.2532    -1.5691 H       
  78 H78           -6.3483    -1.9209     0.9850 H       
  79 H79           -7.6708    -0.8545     0.4539 H       
  80 H80           -7.2175    -2.2675    -0.5291 H       
  81 H81           -4.8027     1.2521    -0.3821 H       
  82 H82           -6.2984     1.0950     0.5700 H       
  83 H83           -4.8330     0.2127     1.0625 H       
  84 H84           -3.3535     0.2950    -2.2122 H       
  85 H85           -1.3781     0.6192    -0.6819 H       
  86 H86           -2.9443     0.7063     0.1592 H       
  87 H87           -1.9499    -0.7650     0.2800 H       
  88 H88           -2.4421    -1.7355    -3.3159 H       
  89 H89           -1.1371    -0.6583    -2.7637 H       
  90 H90           -1.5323    -2.1255    -1.8365 H       
  91 H91           -3.8982    -3.4331    -2.6945 H       
  92 H92           -6.0949    -4.4704    -2.8017 H       
  93 H93           -5.7120    -4.1674    -1.0900 H       
  94 H94           -6.8365    -3.0919    -1.9543 H       
  95 H95           -4.2933    -1.4287    -4.0527 H       
  96 H96           -5.4702    -2.6871    -4.4993 H       
  97 H97           -5.9699    -1.3287    -3.4633 H       
  98 H98           -3.1276    -5.0962     3.6470 H       
@<TRIPOS>BOND
   1    1    2 1
   2    1    5 1
   3    1   48 1
   4    2    3 2
   5    2    6 1
   6    3    4 1
   7    3   49 1
   8    4    5 2
   9    4   50 1
  10    5    9 1
  11    6    7 2
  12    6    8 am
  13    8   32 1
  14    8   51 1
  15    9   10 ar
  16    9   14 ar
  17   10   11 ar
  18   10   52 1
  19   11   12 ar
  20   11   26 1
  21   12   13 ar
  22   12   53 1
  23   13   14 ar
  24   13   15 1
  25   14   54 1
  26   15   17 1
  27   16   17 ar
  28   16   21 ar
  29   16   55 1
  30   17   18 ar
  31   18   19 ar
  32   18   56 1
  33   19   20 ar
  34   19   57 1
  35   20   21 ar
  36   20   22 1
  37   22   23 2
  38   22   24 2
  39   22   25 1
  40   25   58 1
  41   25   59 1
  42   25   60 1
  43   26   27 1
  44   27   28 1
  45   27   29 1
  46   27   61 1
  47   28   30 1
  48   28   62 1
  49   28   63 1
  50   29   64 1
  51   29   65 1
  52   29   66 1
  53   30   31 1
  54   31   67 1
  55   31   68 1
  56   31   69 1
  57   32   33 1
  58   32   35 1
  59   32   70 1
  60   33   34 1
  61   33   47 1
  62   33   71 1
  63   34   72 1
  64   34   73 1
  65   34   74 1
  66   35   36 1
  67   35   75 1
  68   35   76 1
  69   36   37 1
  70   37   38 1
  71   37   41 1
  72   37   44 1
  73   38   39 1
  74   38   40 1
  75   38   77 1
  76   39   78 1
  77   39   79 1
  78   39   80 1
  79   40   81 1
  80   40   82 1
  81   40   83 1
  82   41   42 1
  83   41   43 1
  84   41   84 1
  85   42   85 1
  86   42   86 1
  87   42   87 1
  88   43   88 1
  89   43   89 1
  90   43   90 1
  91   44   45 1
  92   44   46 1
  93   44   91 1
  94   45   92 1
  95   45   93 1
  96   45   94 1
  97   46   95 1
  98   46   96 1
  99   46   97 1
 100   47   98 1

#	End of record

