#	Name: ASD01901286
#	Creating user name:	WinNT
#	Creation time:	15. 06. 2019 19:53

#	Modifying user name:	WinNT
#	Modification time:	15. 06. 2019 19:53

#	Program:	/corina/corina34_cracker 3.40 0067  02.08.2006

@<TRIPOS>MOLECULE
ASD01901286
  47   50    0    0    0
SMALL
NO_CHARGES


@<TRIPOS>ATOM
   1 C1            -0.0166     1.3750     0.0096 C.ar    
   2 C2             0.0021    -0.0041     0.0020 C.ar    
   3 C3             1.2078    -0.6830    -0.0131 C.ar    
   4 C4             2.4027     0.0149    -0.0203 C.ar    
   5 C5             2.3997     1.3941    -0.0129 C.ar    
   6 C6             1.1860     2.0866     0.0019 C.ar    
   7 C7             1.1748     3.5185     0.0093 C.1     
   8 C8             1.1656     4.6925     0.0153 C.1     
   9 C9             1.1543     6.1244     0.0226 C.ar    
  10 C10           -0.0666     8.1943     0.0507 C.ar    
  11 C11           -0.0605     6.8156     0.0433 C.ar    
  12 C12            2.3585     6.8349     0.0149 C.ar    
  13 C13            2.3438     8.2124     0.0225 C.ar    
  14 C14            1.1340     8.8967     0.0382 C.ar    
  15 N15            1.1239    10.2968     0.0458 N.am    
  16 N16            1.1329    12.2901     1.3066 N.am    
  17 C17            1.1406    10.9487     1.2190 C.2     
  18 C18            1.1031    10.9653    -1.1276 C.2     
  19 C19            1.1523    12.9315     2.6235 C.3     
  20 O20            1.0923    10.3667    -2.1860 O.2     
  21 O21            1.1634    10.2984     2.2460 O.2     
  22 C22            1.1062    13.0734     0.1600 C.ar    
  23 C23            1.0934    12.4385    -1.0926 C.ar    
  24 Cl24          -1.5742     9.0546     0.0764 Cl      
  25 C25            1.0979    14.4630     0.2265 C.ar    
  26 C26            1.0725    13.1990    -2.2607 C.ar    
  27 C27            1.0645    14.5752    -2.1774 C.ar    
  28 C28            1.0771    15.2048    -0.9423 C.ar    
  29 O29            1.1152    15.0895     1.4333 O.3     
  30 C30            1.1052    16.5184     1.4227 C.3     
  31 H31           -0.9584     1.9035     0.0169 H       
  32 H32           -0.9266    -0.5554     0.0083 H       
  33 H33            1.2163    -1.7630    -0.0190 H       
  34 H34            3.3399    -0.5217    -0.0315 H       
  35 H35            3.3330     1.9375    -0.0185 H       
  36 H36           -0.9928     6.2705     0.0531 H       
  37 H37            3.2991     6.3044     0.0034 H       
  38 H38            3.2738     8.7615     0.0165 H       
  39 H39            1.1717    12.1667     3.3999 H       
  40 H40            2.0396    13.5588     2.7091 H       
  41 H41            0.2600    13.5463     2.7414 H       
  42 H42            1.0629    12.7131    -3.2252 H       
  43 H43            1.0487    15.1669    -3.0808 H       
  44 H44            1.0703    16.2836    -0.8915 H       
  45 H45            1.1210    16.8895     2.4474 H       
  46 H46            1.9834    16.8839     0.8903 H       
  47 H47            0.2037    16.8717     0.9221 H       
@<TRIPOS>BOND
   1    1    2 ar
   2    1    6 ar
   3    1   31 1
   4    2    3 ar
   5    2   32 1
   6    3    4 ar
   7    3   33 1
   8    4    5 ar
   9    4   34 1
  10    5    6 ar
  11    5   35 1
  12    6    7 1
  13    7    8 3
  14    8    9 1
  15    9   12 ar
  16    9   11 ar
  17   10   11 ar
  18   10   14 ar
  19   10   24 1
  20   11   36 1
  21   12   13 ar
  22   12   37 1
  23   13   14 ar
  24   13   38 1
  25   14   15 1
  26   15   18 am
  27   15   17 am
  28   16   17 am
  29   16   22 1
  30   16   19 1
  31   17   21 2
  32   18   23 1
  33   18   20 2
  34   19   39 1
  35   19   40 1
  36   19   41 1
  37   22   23 ar
  38   22   25 ar
  39   23   26 ar
  40   25   28 ar
  41   25   29 1
  42   26   27 ar
  43   26   42 1
  44   27   28 ar
  45   27   43 1
  46   28   44 1
  47   29   30 1
  48   30   45 1
  49   30   46 1
  50   30   47 1

#	End of record

