#	Name: ASD08710033
#	Creating user name:	WinNT
#	Creation time:	15. 06. 2019 21:19

#	Modifying user name:	WinNT
#	Modification time:	15. 06. 2019 21:19

#	Program:	/corina/corina34_cracker 3.40 0067  02.08.2006

@<TRIPOS>MOLECULE
ASD08710033
  58   61    0    0    0
SMALL
NO_CHARGES


@<TRIPOS>ATOM
   1 C1             0.0483     1.4170     0.0384 C.ar    
   2 C2             0.0477     0.0347     0.0258 C.ar    
   3 C3             1.2457     2.1077     0.0269 C.ar    
   4 C4             2.4424     1.4161     0.0027 C.ar    
   5 C5             2.4417     0.0338    -0.0095 C.ar    
   6 C6             1.2443    -0.6569     0.0016 C.ar    
   7 S7             1.2435    -2.4188    -0.0134 S.o2    
   8 O8            -0.0140    -2.8150    -0.5435 O.2     
   9 O9             2.4852    -2.8159    -0.5789 O.2     
  10 N10            1.2657    -2.9225     1.5640 N.am    
  11 C11            0.0108    -3.1495     2.2944 C.3     
  12 C12            2.5406    -3.1563     2.2566 C.3     
  13 C13            2.5423    -4.5866     2.8104 C.3     
  14 N14            1.2875    -4.8082     3.5425 N.am    
  15 C15            0.0178    -4.5798     2.8481 C.3     
  16 C16            1.3055    -5.2190     4.8260 C.2     
  17 C17            2.6459    -5.5843     1.6551 C.3     
  18 C18            0.0422    -5.3481     5.5771 C.ar    
  19 O19            2.3630    -5.4832     5.3650 O.2     
  20 C20           -0.1349    -4.6716     6.7935 C.ar    
  21 C21           -1.3233    -4.8203     7.4565 C.ar    
  22 C22           -2.3146    -5.6324     6.9091 C.ar    
  23 N23           -2.1217    -6.2611     5.7573 N.ar    
  24 C24           -0.9963    -6.1407     5.0849 C.ar    
  25 C25            0.9585    -3.8013     7.3575 C.3     
  26 N26           -3.5177    -5.7855     7.5772 N.3     
  27 C27           -4.4248    -6.6800     6.8341 C.3     
  28 C28           -4.8135    -7.3112     8.1784 C.3     
  29 C29           -3.4194    -6.8345     8.6092 C.3     
  30 C30            1.2464     3.6146     0.0403 C.3     
  31 F31            1.2661     4.0693     1.3632 F       
  32 F32            2.3791     4.0864    -0.6318 F       
  33 F33            0.0948     4.0872    -0.5982 F       
  34 H34           -0.8867     1.9573     0.0528 H       
  35 H35           -0.8878    -0.5050     0.0352 H       
  36 H36            3.3778     1.9558    -0.0070 H       
  37 H37            3.3766    -0.5065    -0.0291 H       
  38 H38           -0.0672    -2.4390     3.1173 H       
  39 H39           -0.8344    -3.0234     1.6177 H       
  40 H40            3.3658    -3.0347     1.5550 H       
  41 H41            2.6469    -2.4463     3.0768 H       
  42 H42            3.3878    -4.7162     3.4860 H       
  43 H43           -0.8089    -4.7001     3.5482 H       
  44 H44           -0.0853    -5.2930     2.0303 H       
  45 H45            3.5700    -5.4081     1.1046 H       
  46 H46            2.6470    -6.5999     2.0512 H       
  47 H47            1.7946    -5.4559     0.9867 H       
  48 H48           -1.4908    -4.3132     8.3952 H       
  49 H49           -0.8720    -6.6663     4.1497 H       
  50 H50            0.8936    -2.8059     6.9181 H       
  51 H51            0.8440    -3.7292     8.4391 H       
  52 H52            1.9287    -4.2393     7.1232 H       
  53 H53           -5.2471    -6.1566     6.3462 H       
  54 H54           -3.9058    -7.3670     6.1657 H       
  55 H55           -5.6348    -6.8067     8.6875 H       
  56 H56           -4.9246    -8.3951     8.1470 H       
  57 H57           -2.6321    -7.5627     8.4146 H       
  58 H58           -3.3895    -6.4421     9.6257 H       
@<TRIPOS>BOND
   1    1    2 ar
   2    1    3 ar
   3    1   34 1
   4    2    6 ar
   5    2   35 1
   6    3    4 ar
   7    3   30 1
   8    4    5 ar
   9    4   36 1
  10    5    6 ar
  11    5   37 1
  12    6    7 1
  13    7    8 2
  14    7    9 2
  15    7   10 am
  16   10   11 1
  17   10   12 1
  18   11   15 1
  19   11   38 1
  20   11   39 1
  21   12   13 1
  22   12   40 1
  23   12   41 1
  24   13   14 1
  25   13   17 1
  26   13   42 1
  27   14   15 1
  28   14   16 am
  29   15   43 1
  30   15   44 1
  31   16   18 1
  32   16   19 2
  33   17   45 1
  34   17   46 1
  35   17   47 1
  36   18   20 ar
  37   18   24 ar
  38   20   21 ar
  39   20   25 1
  40   21   22 ar
  41   21   48 1
  42   22   23 ar
  43   22   26 1
  44   23   24 ar
  45   24   49 1
  46   25   50 1
  47   25   51 1
  48   25   52 1
  49   26   27 1
  50   26   29 1
  51   27   28 1
  52   27   53 1
  53   27   54 1
  54   28   29 1
  55   28   55 1
  56   28   56 1
  57   29   57 1
  58   29   58 1
  59   30   31 1
  60   30   32 1
  61   30   33 1

#	End of record

