#	Name: ASD01028331
#	Creating user name:	WinNT
#	Creation time:	15. 06. 2019 18:56

#	Modifying user name:	WinNT
#	Modification time:	15. 06. 2019 18:56

#	Program:	/corina/corina34_cracker 3.40 0067  02.08.2006

@<TRIPOS>MOLECULE
ASD01028331
  51   56    0    0    0
SMALL
NO_CHARGES


@<TRIPOS>ATOM
   1 C1            -0.0171     1.4118     0.0098 C.ar    
   2 C2             0.0021    -0.0041     0.0020 C.ar    
   3 C3             1.2105     2.1116     0.0018 C.ar    
   4 C4             2.3793     1.3714    -0.0133 C.ar    
   5 C5             2.3160    -0.0162    -0.0202 C.ar    
   6 N6             1.1704    -0.6565    -0.0123 N.ar    
   7 O7             1.2420     3.4670     0.0084 O.3     
   8 C8             2.5299     4.0861    -0.0005 C.3     
   9 C9             2.3673     5.5842     0.0086 C.2     
  10 N10            2.2914     6.3712     1.1039 N.pl3   
  11 C11            2.1482     7.6566     0.6383 C.2     
  12 N12            2.1444     7.5869    -0.6829 N.2     
  13 N13            2.2796     6.3587    -1.0441 N.2     
  14 N14            2.3296     6.1244     2.4777 N.2     
  15 C15            2.2293     7.1154     3.3363 C.2     
  16 C16            2.0809     8.4458     2.8892 C.2     
  17 C17            2.0417     8.7170     1.5582 C.2     
  18 C18            2.2721     6.8316     4.7912 C.ar    
  19 C19            2.1669     7.8724     5.7131 C.ar    
  20 C20            2.2106     7.6090     7.0634 C.ar    
  21 C21            2.3598     6.3009     7.5227 C.ar    
  22 C22            2.4558     5.2670     6.5981 C.ar    
  23 C23            2.4121     5.5210     5.2476 C.ar    
  24 C24           -1.2152    -0.7043     0.0100 C.ar    
  25 C25           -2.4012    -0.0066     0.0251 C.ar    
  26 C26           -2.4085     1.3917     0.0326 C.ar    
  27 O27           -3.5786    -0.6840     0.0324 O.3     
  28 C28           -1.2431     2.0938     0.0310 C.ar    
  29 C29           -4.7758     0.0961     0.0481 C.3     
  30 O30            2.4433     5.8300     8.7972 O.3     
  31 C31            2.1496     4.4227     8.8021 C.3     
  32 C32            2.5839     3.9772     7.3857 C.3     
  33 H33            3.3370     1.8705    -0.0202 H       
  34 H34            3.2348    -0.5838    -0.0321 H       
  35 H35            3.0883     3.7758     0.8827 H       
  36 H36            3.0716     3.7849    -0.8972 H       
  37 H37            1.9990     9.2495     3.6060 H       
  38 H38            1.9284     9.7332     1.2104 H       
  39 H39            2.0511     8.8887     5.3665 H       
  40 H40            2.1291     8.4205     7.7715 H       
  41 H41            2.4940     4.7080     4.5413 H       
  42 H42           -1.2205    -1.7843     0.0039 H       
  43 H43           -3.3501     1.9205     0.0445 H       
  44 H44           -1.2617     3.1736     0.0369 H       
  45 H45           -4.7913     0.7199     0.9418 H       
  46 H46           -4.8081     0.7300    -0.8381 H       
  47 H47           -5.6412    -0.5666     0.0525 H       
  48 H48            2.7345     3.9088     9.5648 H       
  49 H49            1.0834     4.2513     8.9508 H       
  50 H50            1.9118     3.2134     6.9944 H       
  51 H51            3.6147     3.6228     7.3879 H       
@<TRIPOS>BOND
   1    1    2 ar
   2    1    3 ar
   3    1   28 ar
   4    2   24 ar
   5    2    6 ar
   6    3    4 ar
   7    3    7 1
   8    4    5 ar
   9    4   33 1
  10    5    6 ar
  11    5   34 1
  12    7    8 1
  13    8    9 1
  14    8   35 1
  15    8   36 1
  16    9   10 1
  17    9   13 2
  18   10   11 1
  19   10   14 1
  20   11   12 2
  21   11   17 1
  22   12   13 1
  23   14   15 2
  24   15   16 1
  25   15   18 1
  26   16   17 2
  27   16   37 1
  28   17   38 1
  29   18   19 ar
  30   18   23 ar
  31   19   20 ar
  32   19   39 1
  33   20   21 ar
  34   20   40 1
  35   21   22 ar
  36   21   30 1
  37   22   23 ar
  38   22   32 1
  39   23   41 1
  40   24   25 ar
  41   24   42 1
  42   25   26 ar
  43   25   27 1
  44   26   28 ar
  45   26   43 1
  46   27   29 1
  47   28   44 1
  48   29   45 1
  49   29   46 1
  50   29   47 1
  51   30   31 1
  52   31   32 1
  53   31   48 1
  54   31   49 1
  55   32   50 1
  56   32   51 1

#	End of record

