#	Name: ASD01180341
#	Creating user name:	WinNT
#	Creation time:	15. 06. 2019 19:07

#	Modifying user name:	WinNT
#	Modification time:	15. 06. 2019 19:07

#	Program:	/corina/corina34_cracker 3.40 0067  02.08.2006

@<TRIPOS>MOLECULE
ASD01180341
  70   72    0    0    0
SMALL
NO_CHARGES


@<TRIPOS>ATOM
   1 C1             0.6210     1.6669    -0.0043 C.2     
   2 C2             0.5684     0.1608    -0.0014 C.3     
   3 C3             1.9919    -0.3992    -0.0308 C.3     
   4 O4             1.6876     2.2341    -0.0276 O.2     
   5 O5            -0.5172     2.3782     0.0134 O.3     
   6 C6             3.0835    -2.5776    -0.0513 C.2     
   7 C7             3.0320    -4.0551    -0.0484 C.ar    
   8 C8             4.2119    -4.8086    -0.0725 C.ar    
   9 C9             4.1089    -6.1884    -0.0681 C.ar    
  10 C10            2.8556    -6.7738    -0.0404 C.ar    
  11 N11            1.7607    -6.0382    -0.0181 N.ar    
  12 C12            1.8069    -4.7220    -0.0158 C.ar    
  13 O13            4.1565    -2.0069    -0.0747 O.2     
  14 N14            1.9408    -1.8633    -0.0280 N.am    
  15 C15            2.7394    -8.2763    -0.0361 C.3     
  16 C16            1.9648    -8.7243     1.2050 C.3     
  17 C17            1.7837   -10.2432     1.1723 C.3     
  18 C18            1.1348   -10.7076     2.4778 C.3     
  19 C19            0.8866   -10.6246    -0.0069 C.3     
  20 N20            4.0786    -8.8697    -0.0164 N.pl3   
  21 C21            6.1188    -9.5266    -3.5892 C.ar    
  22 C22            6.7393    -9.7985    -2.3708 C.ar    
  23 C23            6.0626    -9.5803    -1.1898 C.ar    
  24 C24            4.7621    -9.0894    -1.2132 C.ar    
  25 C25            4.1415    -8.8175    -2.4271 C.ar    
  26 C26            4.8147    -9.0343    -3.6104 C.ar    
  27 C27            6.8472    -9.7549    -4.8611 C.ar    
  28 C28            6.4031   -10.7257    -5.7569 C.ar    
  29 C29            7.0848   -10.9339    -6.9387 C.ar    
  30 C30            8.2069   -10.1811    -7.2348 C.ar    
  31 C31            8.6524    -9.2164    -6.3492 C.ar    
  32 C32            7.9749    -8.9954    -5.1672 C.ar    
  33 C33            8.9470   -10.4130    -8.5269 C.3     
  34 F34            8.4160    -9.5868    -9.5232 F       
  35 F35           10.3023   -10.1159    -8.3478 F       
  36 F36            8.8096   -11.7518    -8.9091 F       
  37 C37            4.1415    -8.7390    -4.9259 C.3     
  38 C38            8.1488   -10.3311    -2.3449 C.3     
  39 H39            0.0612    -0.1833     0.9000 H       
  40 H40            0.0235    -0.1854    -0.8796 H       
  41 H41            2.4991    -0.0552    -0.9322 H       
  42 H42            2.5368    -0.0530     0.8474 H       
  43 H43           -0.4330     3.3415     0.0106 H       
  44 H44            5.1775    -4.3253    -0.0943 H       
  45 H45            4.9975    -6.8019    -0.0866 H       
  46 H46            0.8886    -4.1541     0.0072 H       
  47 H47            1.0846    -2.3187    -0.0093 H       
  48 H48            2.2106    -8.6023    -0.9317 H       
  49 H49            2.5194    -8.4436     2.1003 H       
  50 H50            0.9873    -8.2420     1.2169 H       
  51 H51            2.7560   -10.7227     1.0592 H       
  52 H52            0.1625   -10.2281     2.5910 H       
  53 H53            1.0058   -11.7896     2.4546 H       
  54 H54            1.7739   -10.4358     3.3179 H       
  55 H55            1.3945   -10.3868    -0.9416 H       
  56 H56            0.6736   -11.6930     0.0293 H       
  57 H57           -0.0474   -10.0657     0.0514 H       
  58 H58            4.4904    -9.1098     0.8284 H       
  59 H59            6.5429    -9.7912    -0.2458 H       
  60 H60            3.1310    -8.4366    -2.4431 H       
  61 H61            5.5274   -11.3143    -5.5265 H       
  62 H62            6.7418   -11.6862    -7.6335 H       
  63 H63            9.5295    -8.6320    -6.5851 H       
  64 H64            8.3208    -8.2387    -4.4787 H       
  65 H65            3.6169    -9.6290    -5.2735 H       
  66 H66            3.4285    -7.9250    -4.7946 H       
  67 H67            4.8922    -8.4493    -5.6612 H       
  68 H68            8.8513    -9.4985    -2.3088 H       
  69 H69            8.2839   -10.9589    -1.4641 H       
  70 H70            8.3308   -10.9213    -3.2430 H       
@<TRIPOS>BOND
   1    1    2 1
   2    1    4 2
   3    1    5 1
   4    2    3 1
   5    2   39 1
   6    2   40 1
   7    3   14 1
   8    3   41 1
   9    3   42 1
  10    5   43 1
  11    6    7 1
  12    6   13 2
  13    6   14 am
  14    7    8 ar
  15    7   12 ar
  16    8    9 ar
  17    8   44 1
  18    9   10 ar
  19    9   45 1
  20   10   11 ar
  21   10   15 1
  22   11   12 ar
  23   12   46 1
  24   14   47 1
  25   15   16 1
  26   15   20 1
  27   15   48 1
  28   16   17 1
  29   16   49 1
  30   16   50 1
  31   17   18 1
  32   17   19 1
  33   17   51 1
  34   18   52 1
  35   18   53 1
  36   18   54 1
  37   19   55 1
  38   19   56 1
  39   19   57 1
  40   20   24 1
  41   20   58 1
  42   21   22 ar
  43   21   26 ar
  44   21   27 1
  45   22   23 ar
  46   22   38 1
  47   23   24 ar
  48   23   59 1
  49   24   25 ar
  50   25   26 ar
  51   25   60 1
  52   26   37 1
  53   27   28 ar
  54   27   32 ar
  55   28   29 ar
  56   28   61 1
  57   29   30 ar
  58   29   62 1
  59   30   31 ar
  60   30   33 1
  61   31   32 ar
  62   31   63 1
  63   32   64 1
  64   33   34 1
  65   33   35 1
  66   33   36 1
  67   37   65 1
  68   37   66 1
  69   37   67 1
  70   38   68 1
  71   38   69 1
  72   38   70 1

#	End of record

