#	Name: ASD03331384
#	Creating user name:	WinNT
#	Creation time:	15. 06. 2019 20:39

#	Modifying user name:	WinNT
#	Modification time:	15. 06. 2019 20:39

#	Program:	/corina/corina34_cracker 3.40 0067  02.08.2006

@<TRIPOS>MOLECULE
ASD03331384
  64   67    0    0    0
SMALL
NO_CHARGES


@<TRIPOS>ATOM
   1 N1             0.4901    -0.2455    -0.5838 N.2     
   2 N2             0.0725    -1.5271    -0.1909 N.am    
   3 C3             1.1727    -2.3088    -0.0916 C.2     
   4 C4             2.2528    -1.5527    -0.4076 C.2     
   5 C5             1.8016    -0.2604    -0.7144 C.2     
   6 C6             3.6630    -2.0874    -0.4030 C.3     
   7 C7             1.2756    -3.7648     0.2910 C.3     
   8 C8             2.6663    -4.2616    -0.1310 C.3     
   9 O9             3.6617    -3.3331     0.3077 O.3     
  10 C10           -1.1977    -1.9104     0.0455 C.2     
  11 O11           -1.4346    -3.0535     0.3823 O.2     
  12 N12           -2.2052    -1.0258    -0.0916 N.am    
  13 C13           -4.5300    -0.5553    -0.6044 C.2     
  14 C14           -3.5860    -1.4424     0.1655 C.3     
  15 C15           -3.8835    -1.3267     1.6618 C.3     
  16 C16           -3.5160     0.0767     2.1478 C.3     
  17 O17           -4.2324     0.5994    -0.8258 O.2     
  18 N18           -5.7051    -1.0450    -1.0469 N.am    
  19 C19           -5.9783    -2.4818    -0.9624 C.3     
  20 C20           -6.6606    -0.1843    -1.5851 C.ar    
  21 C21           -6.5541     1.1894    -1.3851 C.ar    
  22 N22           -7.6702    -0.6715    -2.2935 N.ar    
  23 N23           -7.4603     2.0008    -1.8965 N.ar    
  24 C24           -8.4684     1.5105    -2.5981 C.ar    
  25 C25           -8.5744     0.1477    -2.8028 C.ar    
  26 C26           -9.5013     2.4405    -3.1805 C.3     
  27 C27           -5.3728    -1.5775     1.9066 C.3     
  28 C28           -3.0591    -2.3637     2.4274 C.3     
  29 C29            2.6514     0.8880    -1.1155 C.ar    
  30 C30            2.1792     1.8169    -2.0410 C.ar    
  31 C31            2.9740     2.8843    -2.4114 C.ar    
  32 C32            4.2405     3.0310    -1.8632 C.ar    
  33 C33            4.7119     2.1091    -0.9439 C.ar    
  34 C34            3.9212     1.0435    -0.5637 C.ar    
  35 F35            5.0156     4.0758    -2.2278 F       
  36 F36            2.5182     3.7860    -3.3084 F       
  37 H37            3.9996    -2.2478    -1.4273 H       
  38 H38            4.3241    -1.3790     0.0962 H       
  39 H39            1.1562    -3.8728     1.3690 H       
  40 H40            0.5060    -4.3379    -0.2260 H       
  41 H41            2.8555    -5.2361     0.3193 H       
  42 H42            2.7059    -4.3502    -1.2167 H       
  43 H43           -2.0161    -0.1131    -0.3604 H       
  44 H44           -3.7186    -2.4766    -0.1524 H       
  45 H45           -4.1033     0.8155     1.6024 H       
  46 H46           -3.7279     0.1592     3.2138 H       
  47 H47           -2.4550     0.2554     1.9734 H       
  48 H48           -6.3622    -2.7209     0.0293 H       
  49 H49           -6.7183    -2.7558    -1.7143 H       
  50 H50           -5.0575    -3.0377    -1.1394 H       
  51 H51           -5.7312     1.5902    -0.8119 H       
  52 H52           -9.3966    -0.2485    -3.3801 H       
  53 H53           -9.1923     2.7466    -4.1800 H       
  54 H54          -10.4611     1.9271    -3.2383 H       
  55 H55           -9.5977     3.3205    -2.5446 H       
  56 H56           -5.6131    -2.6109     1.6568 H       
  57 H57           -5.6045    -1.3940     2.9558 H       
  58 H58           -5.9618    -0.9062     1.2817 H       
  59 H59           -1.9981    -2.1850     2.2530 H       
  60 H60           -3.2710    -2.2812     3.4934 H       
  61 H61           -3.3209    -3.3635     2.0811 H       
  62 H62            1.1938     1.7022    -2.4681 H       
  63 H63            5.6982     2.2267    -0.5199 H       
  64 H64            4.2885     0.3280     0.1571 H       
@<TRIPOS>BOND
   1    1    2 1
   2    1    5 2
   3    2    3 1
   4    2   10 am
   5    3    4 2
   6    3    7 1
   7    4    5 1
   8    4    6 1
   9    5   29 1
  10    6    9 1
  11    6   37 1
  12    6   38 1
  13    7    8 1
  14    7   39 1
  15    7   40 1
  16    8    9 1
  17    8   41 1
  18    8   42 1
  19   10   11 2
  20   10   12 am
  21   12   14 1
  22   12   43 1
  23   13   17 2
  24   13   18 am
  25   13   14 1
  26   14   15 1
  27   14   44 1
  28   15   16 1
  29   15   27 1
  30   15   28 1
  31   16   45 1
  32   16   46 1
  33   16   47 1
  34   18   19 1
  35   18   20 1
  36   19   48 1
  37   19   49 1
  38   19   50 1
  39   20   21 ar
  40   20   22 ar
  41   21   23 ar
  42   21   51 1
  43   22   25 ar
  44   23   24 ar
  45   24   25 ar
  46   24   26 1
  47   25   52 1
  48   26   53 1
  49   26   54 1
  50   26   55 1
  51   27   56 1
  52   27   57 1
  53   27   58 1
  54   28   59 1
  55   28   60 1
  56   28   61 1
  57   29   30 ar
  58   29   34 ar
  59   30   31 ar
  60   30   62 1
  61   31   32 ar
  62   31   36 1
  63   32   33 ar
  64   32   35 1
  65   33   34 ar
  66   33   63 1
  67   34   64 1

#	End of record

