#	Name: ASD01730050
#	Creating user name:	WinNT
#	Creation time:	15. 06. 2019 19:23

#	Modifying user name:	WinNT
#	Modification time:	15. 06. 2019 19:23

#	Program:	/corina/corina34_cracker 3.40 0067  02.08.2006

@<TRIPOS>MOLECULE
ASD01730050
  45   47    0    0    0
SMALL
NO_CHARGES


@<TRIPOS>ATOM
   1 C1            -0.0169     1.3927     0.0097 C.ar    
   2 C2             0.0021    -0.0041     0.0020 C.ar    
   3 C3             1.2254    -0.6783    -0.0133 C.ar    
   4 C4             2.4207     0.0475    -0.0208 C.ar    
   5 C5             2.3959     1.4255    -0.0127 C.ar    
   6 C6             1.1886     2.1040     0.0020 C.ar    
   7 C7            -1.3031     2.1156     0.0197 C.2     
   8 O8            -1.8281     2.4078     1.0768 O.2     
   9 N9            -1.8961     2.4522    -1.1428 N.am    
  10 F10            1.1744     3.4549     0.0094 F       
  11 F11           -1.1564    -0.6991     0.0098 F       
  12 C12            1.2564    -2.1533    -0.0210 C.2     
  13 O13            0.2165    -2.7832    -0.0141 O.2     
  14 N14            2.4374    -2.8025    -0.0358 N.am    
  15 C15           -3.1732     3.1700    -1.1329 C.3     
  16 C16           -2.9130     4.6719    -1.0002 C.3     
  17 C17           -3.9226     2.8955    -2.4382 C.3     
  18 S18            3.9306    -5.1599    -0.0622 S.3     
  19 C19            2.4664    -4.1871    -0.0430 C.2     
  20 N20            1.4250    -4.9439    -0.0363 N.2     
  21 C21            1.6149    -6.2793    -0.0445 C.ar    
  22 C22            2.9670    -6.6352    -0.0596 C.ar    
  23 C23            0.6490    -7.3075    -0.0393 C.ar    
  24 C24            1.0336    -8.6243    -0.0485 C.ar    
  25 C25            2.3818    -8.9672    -0.0630 C.ar    
  26 C26            3.3439    -7.9757    -0.0692 C.ar    
  27 O27            2.7519   -10.2756    -0.0710 O.3     
  28 C28            1.7033   -11.2465    -0.0637 C.3     
  29 F29            0.9018   -11.0756    -1.1975 F       
  30 F30            2.2572   -12.5311    -0.0735 F       
  31 F31            0.9245   -11.0831     1.0869 F       
  32 H32            3.3666    -0.4736    -0.0326 H       
  33 H33            3.3231     1.9793    -0.0179 H       
  34 H34           -1.4773     2.2191    -1.9862 H       
  35 H35            3.2670    -2.2999    -0.0413 H       
  36 H36           -3.7747     2.8296    -0.2900 H       
  37 H37           -2.3790     4.8674    -0.0703 H       
  38 H38           -2.3115     5.0122    -1.8431 H       
  39 H39           -3.8632     5.2059    -0.9928 H       
  40 H40           -4.1080     1.8256    -2.5327 H       
  41 H41           -4.8728     3.4296    -2.4308 H       
  42 H42           -3.3211     3.2359    -3.2810 H       
  43 H43           -0.4012    -7.0561    -0.0277 H       
  44 H44            0.2834    -9.4013    -0.0440 H       
  45 H45            4.3907    -8.2410    -0.0812 H       
@<TRIPOS>BOND
   1    1    2 ar
   2    1    6 ar
   3    1    7 1
   4    2    3 ar
   5    2   11 1
   6    3    4 ar
   7    3   12 1
   8    4    5 ar
   9    4   32 1
  10    5    6 ar
  11    5   33 1
  12    6   10 1
  13    7    8 2
  14    7    9 am
  15    9   15 1
  16    9   34 1
  17   12   13 2
  18   12   14 am
  19   14   19 1
  20   14   35 1
  21   15   16 1
  22   15   17 1
  23   15   36 1
  24   16   37 1
  25   16   38 1
  26   16   39 1
  27   17   40 1
  28   17   41 1
  29   17   42 1
  30   18   19 1
  31   18   22 1
  32   19   20 2
  33   20   21 1
  34   21   22 ar
  35   21   23 ar
  36   22   26 ar
  37   23   24 ar
  38   23   43 1
  39   24   25 ar
  40   24   44 1
  41   25   26 ar
  42   25   27 1
  43   26   45 1
  44   27   28 1
  45   28   29 1
  46   28   30 1
  47   28   31 1

#	End of record

