#	Name: ASD01811882
#	Creating user name:	WinNT
#	Creation time:	15. 06. 2019 19:27

#	Modifying user name:	WinNT
#	Modification time:	15. 06. 2019 19:27

#	Program:	/corina/corina34_cracker 3.40 0067  02.08.2006

@<TRIPOS>MOLECULE
ASD01811882
  64   69    0    0    0
SMALL
NO_CHARGES


@<TRIPOS>ATOM
   1 C1            -0.0168     1.3880     0.0097 C.ar    
   2 C2             0.0021    -0.0041     0.0020 C.ar    
   3 C3             1.1794    -0.6886    -0.0126 C.ar    
   4 C4             2.3953     0.0151    -0.0208 C.ar    
   5 C5             2.3734     1.4320    -0.0135 C.ar    
   6 C6             1.1435     2.1030     0.0024 C.ar    
   7 C7             3.6259    -0.6704    -0.0371 C.ar    
   8 C8             4.7981     0.0206    -0.0498 C.ar    
   9 C9             4.7985     1.4165    -0.0463 C.ar    
  10 C10            3.5978     2.1409    -0.0235 C.ar    
  11 C11            6.0569     2.2036    -0.0703 C.2     
  12 N12            5.9111     3.5282    -0.5311 N.pl3   
  13 C13            4.7324     4.1628    -0.2433 C.2     
  14 N14            3.6383     3.4978    -0.0091 N.2     
  15 C15            7.2344     1.6973     0.3150 C.2     
  16 C16            6.9748     4.1967    -1.2848 C.3     
  17 C17            7.4281     5.4494    -0.5289 C.3     
  18 C18            8.4842     6.1813    -1.3628 C.3     
  19 C19            7.8978     6.5127    -2.7376 C.3     
  20 O20            7.4678     5.3074    -3.3737 O.3     
  21 C21            6.4467     4.6047    -2.6626 C.3     
  22 O22            7.9904     5.0713     0.7292 O.3     
  23 C23            3.6442    -2.1773    -0.0402 C.3     
  24 C24            3.5092    -2.6785    -1.4549 C.ar    
  25 C25            4.6382    -2.8967    -2.2314 C.ar    
  26 C26            4.4708    -3.3573    -3.5261 C.ar    
  27 C27            3.1816    -3.5848    -4.0022 C.ar    
  28 N28            2.1277    -3.3631    -3.2273 N.ar    
  29 C29            2.2592    -2.9307    -1.9899 C.ar    
  30 C30            2.9854    -4.0784    -5.3873 C.ar    
  31 C31            1.6997    -4.3123    -5.8824 C.ar    
  32 C32            1.5700    -4.7723    -7.1818 C.ar    
  33 C33            2.7061    -4.9836    -7.9410 C.ar    
  34 N34            3.9073    -4.7539    -7.4463 N.ar    
  35 C35            4.0800    -4.3109    -6.2179 C.ar    
  36 C36            2.5702    -5.4848    -9.3558 C.3     
  37 H37           -0.9633     1.9081     0.0170 H       
  38 H38           -0.9303    -0.5490     0.0082 H       
  39 H39            1.1783    -1.7686    -0.0176 H       
  40 H40            1.1151     3.1826     0.0086 H       
  41 H41            5.7357    -0.5153    -0.0622 H       
  42 H42            4.7102     5.2420    -0.2087 H       
  43 H43            7.2957     0.6762     0.6615 H       
  44 H44            8.1232     2.3097     0.2796 H       
  45 H45            7.8193     3.5180    -1.4047 H       
  46 H46            6.5735     6.1058    -0.3653 H       
  47 H47            8.7723     7.1033    -0.8579 H       
  48 H48            9.3592     5.5428    -1.4843 H       
  49 H49            7.0474     7.1839    -2.6179 H       
  50 H50            8.6588     6.9957    -3.3506 H       
  51 H51            6.1623     3.7131    -3.2216 H       
  52 H52            5.5773     5.2509    -2.5419 H       
  53 H53            8.2992     5.8168     1.2620 H       
  54 H54            4.5852    -2.5300     0.3820 H       
  55 H55            2.8142    -2.5519     0.5588 H       
  56 H56            5.6254    -2.7109    -1.8347 H       
  57 H57            5.3277    -3.5375    -4.1583 H       
  58 H58            1.3783    -2.7614    -1.3884 H       
  59 H59            0.8293    -4.1389    -5.2669 H       
  60 H60            0.5920    -4.9643    -7.5978 H       
  61 H61            5.0793    -4.1346    -5.8482 H       
  62 H62            2.4912    -4.6365   -10.0357 H       
  63 H63            3.4459    -6.0791    -9.6164 H       
  64 H64            1.6750    -6.1012    -9.4384 H       
@<TRIPOS>BOND
   1    1    2 ar
   2    1    6 ar
   3    1   37 1
   4    2    3 ar
   5    2   38 1
   6    3    4 ar
   7    3   39 1
   8    4    5 ar
   9    4    7 ar
  10    5    6 ar
  11    5   10 ar
  12    6   40 1
  13    7    8 ar
  14    7   23 1
  15    8    9 ar
  16    8   41 1
  17    9   10 ar
  18    9   11 1
  19   10   14 1
  20   11   12 1
  21   11   15 2
  22   12   13 1
  23   12   16 1
  24   13   14 2
  25   13   42 1
  26   15   43 1
  27   15   44 1
  28   16   17 1
  29   16   21 1
  30   16   45 1
  31   17   18 1
  32   17   22 1
  33   17   46 1
  34   18   19 1
  35   18   47 1
  36   18   48 1
  37   19   20 1
  38   19   49 1
  39   19   50 1
  40   20   21 1
  41   21   51 1
  42   21   52 1
  43   22   53 1
  44   23   24 1
  45   23   54 1
  46   23   55 1
  47   24   25 ar
  48   24   29 ar
  49   25   26 ar
  50   25   56 1
  51   26   27 ar
  52   26   57 1
  53   27   28 ar
  54   27   30 1
  55   28   29 ar
  56   29   58 1
  57   30   31 ar
  58   30   35 ar
  59   31   32 ar
  60   31   59 1
  61   32   33 ar
  62   32   60 1
  63   33   34 ar
  64   33   36 1
  65   34   35 ar
  66   35   61 1
  67   36   62 1
  68   36   63 1
  69   36   64 1

#	End of record

