#	Name: ASD08150976
#	Creating user name:	WinNT
#	Creation time:	15. 06. 2019 21:16

#	Modifying user name:	WinNT
#	Modification time:	15. 06. 2019 21:16

#	Program:	/corina/corina34_cracker 3.40 0067  02.08.2006

@<TRIPOS>MOLECULE
ASD08150976
  46   50    0    0    0
SMALL
NO_CHARGES


@<TRIPOS>ATOM
   1 N1            -0.2727     1.4099     0.0588 N.2     
   2 C2            -0.6769     0.2772     0.5560 C.2     
   3 N3            -0.3464     0.2038     1.8765 N.pl3   
   4 C4             0.3012     1.3682     2.2038 C.ar    
   5 N5             0.8441     1.8605     3.3123 N.ar    
   6 C6             1.4122     3.0480     3.3111 C.ar    
   7 N7             1.4736     3.8033     2.2297 N.ar    
   8 C8             0.9580     3.3949     1.0748 C.ar    
   9 C9             0.3411     2.1334     1.0258 C.ar    
  10 N10            1.0268     4.1937    -0.0532 N.pl3   
  11 C11            1.6735     5.5064     0.0171 C.3     
  12 C12            2.1608     5.9101    -1.3759 C.3     
  13 N13            0.6218     9.7945     2.1275 N.ar    
  14 C14           -0.2361    10.6850     2.5651 C.ar    
  15 C15           -1.6109    10.4867     2.4668 C.ar    
  16 C16           -2.0954     9.3405     1.9027 C.ar    
  17 C17           -1.1709     8.3883     1.4347 C.ar    
  18 C18           -1.5973     7.1859     0.8424 C.ar    
  19 C19           -0.6769     6.2812     0.3972 C.ar    
  20 C20            0.6850     6.5272     0.5189 C.ar    
  21 C21            1.1448     7.6980     1.0957 C.ar    
  22 C22            0.2135     8.6545     1.5663 C.ar    
  23 C23            2.5997     7.9484     1.2195 C.ar    
  24 C24            3.1912     8.9987     0.5184 C.ar    
  25 C25            4.5487     9.2273     0.6386 C.ar    
  26 C26            5.3206     8.4144     1.4535 C.ar    
  27 C27            4.7376     7.3719     2.1502 C.ar    
  28 C28            3.3816     7.1381     2.0421 C.ar    
  29 F29            5.1243    10.2442    -0.0395 F       
  30 F30           -2.9169     6.9263     0.7146 F       
  31 H31           -1.1977    -0.4912     0.0040 H       
  32 H32           -0.5348    -0.5359     2.4750 H       
  33 H33            1.8440     3.4186     4.2291 H       
  34 H34            0.6467     3.8845    -0.8904 H       
  35 H35            2.5225     5.4570     0.6989 H       
  36 H36            1.3118     5.9594    -2.0577 H       
  37 H37            2.6420     6.8867    -1.3236 H       
  38 H38            2.8758     5.1717    -1.7388 H       
  39 H39            0.1333    11.5954     3.0136 H       
  40 H40           -2.2934    11.2377     2.8364 H       
  41 H41           -3.1585     9.1698     1.8185 H       
  42 H42           -1.0126     5.3602    -0.0560 H       
  43 H43            2.5898     9.6318    -0.1172 H       
  44 H44            6.3814     8.5956     1.5444 H       
  45 H45            5.3440     6.7416     2.7838 H       
  46 H46            2.9275     6.3261     2.5906 H       
@<TRIPOS>BOND
   1    1    2 2
   2    1    9 1
   3    2    3 1
   4    2   31 1
   5    3    4 1
   6    3   32 1
   7    4    5 ar
   8    4    9 ar
   9    5    6 ar
  10    6    7 ar
  11    6   33 1
  12    7    8 ar
  13    8    9 ar
  14    8   10 1
  15   10   11 1
  16   10   34 1
  17   11   12 1
  18   11   20 1
  19   11   35 1
  20   12   36 1
  21   12   37 1
  22   12   38 1
  23   13   14 ar
  24   13   22 ar
  25   14   15 ar
  26   14   39 1
  27   15   16 ar
  28   15   40 1
  29   16   17 ar
  30   16   41 1
  31   17   18 ar
  32   17   22 ar
  33   18   19 ar
  34   18   30 1
  35   19   20 ar
  36   19   42 1
  37   20   21 ar
  38   21   22 ar
  39   21   23 1
  40   23   24 ar
  41   23   28 ar
  42   24   25 ar
  43   24   43 1
  44   25   26 ar
  45   25   29 1
  46   26   27 ar
  47   26   44 1
  48   27   28 ar
  49   27   45 1
  50   28   46 1

#	End of record

