#	Name: ASD03491015
#	Creating user name:	WinNT
#	Creation time:	15. 06. 2019 20:42

#	Modifying user name:	WinNT
#	Modification time:	15. 06. 2019 20:42

#	Program:	/corina/corina34_cracker 3.40 0067  02.08.2006

@<TRIPOS>MOLECULE
ASD03491015
  73   76    0    0    0
SMALL
NO_CHARGES


@<TRIPOS>ATOM
   1 C1            -0.1674     1.2854    -0.6048 C.ar    
   2 C2            -0.2363    -0.0551    -0.9585 C.ar    
   3 C3             0.8873    -0.8654    -0.8278 C.ar    
   4 C4             2.0749    -0.3271    -0.3428 C.ar    
   5 C5             2.1336     1.0160     0.0085 C.ar    
   6 C6             1.0152     1.8160    -0.1233 C.ar    
   7 C7             1.0841     3.2720     0.2596 C.3     
   8 N8             3.2081    -1.1367    -0.2086 N.am    
   9 C9             4.4356    -0.6154    -0.4032 C.2     
  10 O10            4.5549     0.5323    -0.7816 O.2     
  11 C11            6.9765    -0.8440    -0.2311 C.ar    
  12 C12            8.1787    -1.6761    -0.1338 C.ar    
  13 C13            9.4478    -1.0587    -0.2183 C.ar    
  14 C14            9.5285     0.3425    -0.3935 C.ar    
  15 C15            8.3757     1.1063    -0.4820 C.ar    
  16 C16            7.1227     0.5360    -0.4045 C.ar    
  17 C17            8.0939    -3.0605     0.0403 C.ar    
  18 C18            9.2373    -3.8013     0.1269 C.ar    
  19 C19           10.4871    -3.1963     0.0445 C.ar    
  20 C20           10.6030    -1.8483    -0.1262 C.ar    
  21 C21            2.4923     3.6020     0.7585 C.3     
  22 C22            0.7597     4.1361    -0.9606 C.3     
  23 C23            0.0701     3.5559     1.3697 C.3     
  24 C24            5.6461    -1.4472    -0.1541 C.2     
  25 O25            5.5282    -2.6274     0.1132 O.2     
  26 N26           10.7658     0.9542    -0.4766 N.pl3   
  27 C27           10.9421     2.0529    -1.3049 C.ar    
  28 C28           12.2039     2.6310    -1.4554 C.ar    
  29 C29           12.3327     3.7238    -2.2913 C.ar    
  30 N30           11.2634     4.1877    -2.9207 N.ar    
  31 C31           10.0777     3.6188    -2.7589 C.ar    
  32 N32            9.9133     2.5672    -1.9711 N.ar    
  33 N33           -1.4342    -0.5909    -1.4454 N.am    
  34 S34           -2.4410     0.3403    -2.3735 S.o2    
  35 O35           -3.4777    -0.5487    -2.7662 O.2     
  36 O36           -2.7163     1.4742    -1.5625 O.2     
  37 C37           -1.4306     0.8115    -3.8045 C.3     
  38 N38            8.9847     4.1334    -3.4343 N.pl3   
  39 C39            9.1472     5.2929    -4.3149 C.3     
  40 O40            0.8246    -2.1803    -1.1728 O.3     
  41 C41            1.1456    -2.5122    -2.5251 C.3     
  42 H42           -1.0378     1.9160    -0.7102 H       
  43 H43            3.0550     1.4350     0.3851 H       
  44 H44            3.1102    -2.0732     0.0245 H       
  45 H45            8.4608     2.1747    -0.6154 H       
  46 H46            6.2453     1.1615    -0.4777 H       
  47 H47            7.1291    -3.5413     0.1064 H       
  48 H48            9.1707    -4.8708     0.2614 H       
  49 H49           11.3779    -3.8026     0.1162 H       
  50 H50           11.5795    -1.3910    -0.1886 H       
  51 H51            3.2146     3.3998    -0.0323 H       
  52 H52            2.5421     4.6551     1.0355 H       
  53 H53            2.7234     2.9864     1.6279 H       
  54 H54           -0.2435     3.9010    -1.3160 H       
  55 H55            0.8095     5.1892    -0.6836 H       
  56 H56            1.4821     3.9338    -1.7514 H       
  57 H57            0.3012     2.9402     2.2390 H       
  58 H58            0.1200     4.6089     1.6466 H       
  59 H59           -0.9331     3.3207     1.0142 H       
  60 H60           11.5104     0.6150     0.0443 H       
  61 H61           13.0598     2.2334    -0.9303 H       
  62 H62           13.2946     4.1948    -2.4296 H       
  63 H63           -1.6746    -1.5078    -1.2392 H       
  64 H64           -1.1058    -0.0859    -4.3312 H       
  65 H65           -2.0209     1.4339    -4.4770 H       
  66 H66           -0.5580     1.3695    -3.4651 H       
  67 H67            8.1111     3.7262    -3.3246 H       
  68 H68            8.1845     5.5520    -4.7557 H       
  69 H69            9.5216     6.1381    -3.7373 H       
  70 H70            9.8562     5.0512    -5.1067 H       
  71 H71            1.0564    -3.5894    -2.6658 H       
  72 H72            0.4581    -1.9997    -3.1980 H       
  73 H73            2.1671    -2.2006    -2.7430 H       
@<TRIPOS>BOND
   1    1    2 ar
   2    1    6 ar
   3    1   42 1
   4    2    3 ar
   5    2   33 1
   6    3    4 ar
   7    3   40 1
   8    4    5 ar
   9    4    8 1
  10    5    6 ar
  11    5   43 1
  12    6    7 1
  13    7   21 1
  14    7   22 1
  15    7   23 1
  16    8    9 am
  17    8   44 1
  18    9   10 2
  19    9   24 1
  20   11   12 ar
  21   11   16 ar
  22   11   24 1
  23   12   13 ar
  24   12   17 ar
  25   13   14 ar
  26   13   20 ar
  27   14   15 ar
  28   14   26 1
  29   15   16 ar
  30   15   45 1
  31   16   46 1
  32   17   18 ar
  33   17   47 1
  34   18   19 ar
  35   18   48 1
  36   19   20 ar
  37   19   49 1
  38   20   50 1
  39   21   51 1
  40   21   52 1
  41   21   53 1
  42   22   54 1
  43   22   55 1
  44   22   56 1
  45   23   57 1
  46   23   58 1
  47   23   59 1
  48   24   25 2
  49   26   27 1
  50   26   60 1
  51   27   28 ar
  52   27   32 ar
  53   28   29 ar
  54   28   61 1
  55   29   30 ar
  56   29   62 1
  57   30   31 ar
  58   31   32 ar
  59   31   38 1
  60   33   34 am
  61   33   63 1
  62   34   35 2
  63   34   36 2
  64   34   37 1
  65   37   64 1
  66   37   65 1
  67   37   66 1
  68   38   39 1
  69   38   67 1
  70   39   68 1
  71   39   69 1
  72   39   70 1
  73   40   41 1
  74   41   71 1
  75   41   72 1
  76   41   73 1

#	End of record

