#	Name: ASD03090596
#	Creating user name:	WinNT
#	Creation time:	15. 06. 2019 20:29

#	Modifying user name:	WinNT
#	Modification time:	15. 06. 2019 20:29

#	Program:	/corina/corina34_cracker 3.40 0067  02.08.2006

@<TRIPOS>MOLECULE
ASD03090596
  30   31    0    0    0
SMALL
NO_CHARGES


@<TRIPOS>ATOM
   1 N1            -0.0162     1.3436     0.0094 N.am    
   2 C2            -0.2041     0.1128    -0.5068 C.2     
   3 O3             0.6905    -0.4298    -1.1262 O.2     
   4 N4            -1.3837    -0.5165    -0.3363 N.am    
   5 S5            -3.0115    -2.7149    -0.7403 S.3     
   6 C6            -1.5776    -1.7864    -0.8689 C.2     
   7 N7            -0.7018    -2.4649    -1.5471 N.2     
   8 N8            -1.0397    -3.6084    -1.9619 N.2     
   9 C9            -2.2388    -4.0001    -1.6692 C.2     
  10 C10           -2.8620    -5.3176    -2.0527 C.3     
  11 F11           -1.9061    -6.1187    -2.6865 F       
  12 F12           -3.3259    -5.9662    -0.9032 F       
  13 F13           -3.9325    -5.0909    -2.9244 F       
  14 C14            1.2464     1.9478    -0.0613 C.ar    
  15 C15            1.3524     3.3293    -0.2080 C.ar    
  16 C16            2.6027     3.9210    -0.2774 C.ar    
  17 C17            3.7423     3.1412    -0.2015 C.ar    
  18 C18            3.6378     1.7706    -0.0560 C.ar    
  19 C19            2.3935     1.1729     0.0203 C.ar    
  20 O20            0.2310     4.0947    -0.2834 O.3     
  21 C21            0.4161     5.5037    -0.4334 C.3     
  22 H22           -0.7558     1.8127     0.4263 H       
  23 H23           -2.0974    -0.0837     0.1578 H       
  24 H24            2.6878     4.9917    -0.3911 H       
  25 H25            4.7164     3.6042    -0.2565 H       
  26 H26            4.5305     1.1655     0.0028 H       
  27 H27            2.3148     0.1023     0.1389 H       
  28 H28            0.9771     5.8892     0.4180 H       
  29 H29            0.9682     5.7019    -1.3521 H       
  30 H30           -0.5558     5.9949    -0.4805 H       
@<TRIPOS>BOND
   1    1    2 am
   2    1   14 1
   3    1   22 1
   4    2    3 2
   5    2    4 am
   6    4    6 1
   7    4   23 1
   8    5    6 1
   9    5    9 1
  10    6    7 2
  11    7    8 1
  12    8    9 2
  13    9   10 1
  14   10   11 1
  15   10   12 1
  16   10   13 1
  17   14   15 ar
  18   14   19 ar
  19   15   16 ar
  20   15   20 1
  21   16   17 ar
  22   16   24 1
  23   17   18 ar
  24   17   25 1
  25   18   19 ar
  26   18   26 1
  27   19   27 1
  28   20   21 1
  29   21   28 1
  30   21   29 1
  31   21   30 1

#	End of record

