#	Name: ASD05430105
#	Creating user name:	WinNT
#	Creation time:	15. 06. 2019 20:59

#	Modifying user name:	WinNT
#	Modification time:	15. 06. 2019 20:59

#	Program:	/corina/corina34_cracker 3.40 0067  02.08.2006

@<TRIPOS>MOLECULE
ASD05430105
  68   73    0    0    0
SMALL
NO_CHARGES


@<TRIPOS>ATOM
   1 C1             0.4178     0.5488     1.8041 C.ar    
   2 C2             0.4841    -0.7861     1.4062 C.ar    
   3 C3             1.6342    -1.2780     0.8025 C.ar    
   4 C4             2.7152    -0.4494     0.5939 C.ar    
   5 C5             2.6557     0.8906     0.9900 C.ar    
   6 C6             1.4980     1.3858     1.5977 C.ar    
   7 C7             5.3567    -0.1440     1.2588 C.3     
   8 C8             5.0594     1.2798     0.8154 C.2     
   9 C9             3.8098     1.7773     0.7685 C.2     
  10 C10            6.5654    -0.1100     2.2066 C.3     
  11 C11            7.8120     0.3728     1.4500 C.3     
  12 N12            7.5257     1.6607     0.8260 N.pl3   
  13 C13            6.2484     2.0775     0.4396 C.2     
  14 N14           -0.6123    -1.6334     1.6163 N.pl3   
  15 C15           -1.1998    -2.4516     0.6864 C.2     
  16 C16           -2.2126    -3.0848     1.3084 C.2     
  17 N17           -2.2469    -2.6685     2.5830 N.2     
  18 C18           -1.2897    -1.8035     2.7813 C.2     
  19 C19           -3.1460    -4.0879     0.6809 C.3     
  20 C20           -0.7095     2.4051     2.7723 C.3     
  21 O21           -0.7114     1.0282     2.3900 O.3     
  22 N22            6.3138     3.1616    -0.2551 N.2     
  23 C23            8.4323     2.7618     0.4976 C.3     
  24 O24            7.6683     3.5523    -0.4371 O.3     
  25 C25            8.7659     3.5777     1.7482 C.3     
  26 O26            9.6509     4.6440     1.3992 O.3     
  27 C27            6.2667     0.8843     3.3429 C.3     
  28 S28            6.4235    -0.0820     4.8910 S.o2    
  29 C29            7.4422    -1.4223     4.1527 C.3     
  30 C30            6.8214    -1.5251     2.7359 C.3     
  31 O31            7.2018     0.6460     5.8310 O.2     
  32 O32            5.1526    -0.5981     5.2621 O.2     
  33 F33           13.1224     0.8158    -1.9188 F       
  34 C34            9.6893     2.2405    -0.1498 C.ar    
  35 C35           10.3894     1.2030     0.4372 C.ar    
  36 C36           11.5420     0.7238    -0.1558 C.ar    
  37 C37           11.9955     1.2832    -1.3384 C.ar    
  38 C38           11.2935     2.3222    -1.9254 C.ar    
  39 C39           10.1383     2.7963    -1.3333 C.ar    
  40 H40            1.6815    -2.3126     0.4961 H       
  41 H41            3.6084    -0.8348     0.1250 H       
  42 H42            1.4479     2.4200     1.9047 H       
  43 H43            4.4921    -0.5548     1.7802 H       
  44 H44            5.5886    -0.7590     0.3892 H       
  45 H45            3.6536     2.8271     0.5684 H       
  46 H46            8.6418     0.4828     2.1482 H       
  47 H47            8.0756    -0.3537     0.6814 H       
  48 H48           -0.9070    -2.5661    -0.3468 H       
  49 H49           -1.0769    -1.3012     3.7134 H       
  50 H50           -2.7326    -5.0899     0.7951 H       
  51 H51           -4.1175    -4.0374     1.1727 H       
  52 H52           -3.2631    -3.8617    -0.3789 H       
  53 H53           -1.6678     2.6574     3.2265 H       
  54 H54            0.0908     2.5815     3.4909 H       
  55 H55           -0.5502     3.0266     1.8912 H       
  56 H56            7.8485     3.9897     2.1686 H       
  57 H57            9.2459     2.9335     2.4849 H       
  58 H58            9.9053     5.2041     2.1453 H       
  59 H59            6.9909     1.6988     3.3316 H       
  60 H60            5.2546     1.2770     3.2442 H       
  61 H61            8.4920    -1.1336     4.1008 H       
  62 H62            7.3207    -2.3554     4.7027 H       
  63 H63            5.8805    -2.0729     2.7871 H       
  64 H64            7.5104    -2.0459     2.0709 H       
  65 H65           10.0357     0.7671     1.3598 H       
  66 H66           12.0890    -0.0865     0.3031 H       
  67 H67           11.6463     2.7594    -2.8479 H       
  68 H68            9.5905     3.6068    -1.7910 H       
@<TRIPOS>BOND
   1    1    2 ar
   2    1    6 ar
   3    1   21 1
   4    2    3 ar
   5    2   14 1
   6    3    4 ar
   7    3   40 1
   8    4    5 ar
   9    4   41 1
  10    5    6 ar
  11    5    9 1
  12    6   42 1
  13    7    8 1
  14    7   10 1
  15    7   43 1
  16    7   44 1
  17    8    9 2
  18    8   13 1
  19    9   45 1
  20   10   11 1
  21   10   27 1
  22   10   30 1
  23   11   12 1
  24   11   46 1
  25   11   47 1
  26   12   13 1
  27   12   23 1
  28   13   22 2
  29   14   15 1
  30   14   18 1
  31   15   16 2
  32   15   48 1
  33   16   17 1
  34   16   19 1
  35   17   18 2
  36   18   49 1
  37   19   50 1
  38   19   51 1
  39   19   52 1
  40   20   21 1
  41   20   53 1
  42   20   54 1
  43   20   55 1
  44   22   24 1
  45   23   24 1
  46   23   25 1
  47   23   34 1
  48   25   26 1
  49   25   56 1
  50   25   57 1
  51   26   58 1
  52   27   28 1
  53   27   59 1
  54   27   60 1
  55   28   29 1
  56   28   31 2
  57   28   32 2
  58   29   30 1
  59   29   61 1
  60   29   62 1
  61   30   63 1
  62   30   64 1
  63   33   37 1
  64   34   35 ar
  65   34   39 ar
  66   35   36 ar
  67   35   65 1
  68   36   37 ar
  69   36   66 1
  70   37   38 ar
  71   38   39 ar
  72   38   67 1
  73   39   68 1

#	End of record

