#	Name: ASD03930081
#	Creating user name:	WinNT
#	Creation time:	15. 06. 2019 20:47

#	Modifying user name:	WinNT
#	Modification time:	15. 06. 2019 20:47

#	Program:	/corina/corina34_cracker 3.40 0067  02.08.2006

@<TRIPOS>MOLECULE
ASD03930081
  42   44    0    0    0
SMALL
NO_CHARGES


@<TRIPOS>ATOM
   1 C1            -0.0167     1.3786     0.0096 C.ar    
   2 C2             0.0021    -0.0041     0.0020 C.ar    
   3 C3             1.2207    -0.6652    -0.0132 C.ar    
   4 N4             2.3579     0.0062    -0.0204 N.ar    
   5 C5             2.3869     1.3238    -0.0136 C.ar    
   6 C6             1.2049     2.0592     0.0016 C.ar    
   7 C7             1.2407     3.5426     0.0092 C.ar    
   8 C8             0.0953     5.6499     0.0372 C.ar    
   9 C9             0.0535     4.2714     0.0302 C.ar    
  10 C10            2.4611     4.2130     0.0012 C.ar    
  11 C11            1.3113     6.3143     0.0239 C.ar    
  12 C12            1.6160     7.7974     0.0301 C.3     
  13 C13            2.4934     5.5951     0.0088 C.ar    
  14 C14            3.6709     6.5467     0.0037 C.3     
  15 C15            3.0949     7.9045     0.4581 C.3     
  16 N16            3.7591     9.0105    -0.2361 N.am    
  17 S17            3.9026    10.4853     0.5033 S.o2    
  18 O18            4.5623    11.2968    -0.4587 O.2     
  19 O19            2.5842    10.7892     0.9377 O.2     
  20 C20            4.9858    10.1753     1.9250 C.3     
  21 C21            6.3356     9.6495     1.4327 C.3     
  22 C22            5.1974    11.4783     2.6985 C.3     
  23 F23            1.2451    -2.0160    -0.0202 F       
  24 H24           -0.9515     1.9194     0.0170 H       
  25 H25           -0.9222    -0.5627     0.0082 H       
  26 H26            3.3367     1.8379    -0.0199 H       
  27 H27           -0.8250     6.2148     0.0535 H       
  28 H28           -0.8967     3.7583     0.0407 H       
  29 H29            3.3840     3.6523    -0.0107 H       
  30 H30            1.4747     8.2166    -0.9661 H       
  31 H31            0.9801     8.3111     0.7511 H       
  32 H32            4.4348     6.2069     0.7030 H       
  33 H33            4.0862     6.6292    -1.0007 H       
  34 H34            3.1781     8.0185     1.5390 H       
  35 H35            4.1148     8.8789    -1.1289 H       
  36 H36            4.5242     9.4355     2.5790 H       
  37 H37            6.7972    10.3893     0.7787 H       
  38 H38            6.9864     9.4632     2.2870 H       
  39 H39            6.1848     8.7212     0.8816 H       
  40 H40            4.2358    11.8530     3.0492 H       
  41 H41            5.8483    11.2921     3.5528 H       
  42 H42            5.6590    12.2182     2.0445 H       
@<TRIPOS>BOND
   1    1    2 ar
   2    1    6 ar
   3    1   24 1
   4    2    3 ar
   5    2   25 1
   6    3    4 ar
   7    3   23 1
   8    4    5 ar
   9    5    6 ar
  10    5   26 1
  11    6    7 1
  12    7   10 ar
  13    7    9 ar
  14    8    9 ar
  15    8   11 ar
  16    8   27 1
  17    9   28 1
  18   10   13 ar
  19   10   29 1
  20   11   13 ar
  21   11   12 1
  22   12   15 1
  23   12   30 1
  24   12   31 1
  25   13   14 1
  26   14   15 1
  27   14   32 1
  28   14   33 1
  29   15   16 1
  30   15   34 1
  31   16   17 am
  32   16   35 1
  33   17   18 2
  34   17   19 2
  35   17   20 1
  36   20   21 1
  37   20   22 1
  38   20   36 1
  39   21   37 1
  40   21   38 1
  41   21   39 1
  42   22   40 1
  43   22   41 1
  44   22   42 1

#	End of record

