#	Name: ASD03090884
#	Creating user name:	WinNT
#	Creation time:	15. 06. 2019 20:29

#	Modifying user name:	WinNT
#	Modification time:	15. 06. 2019 20:29

#	Program:	/corina/corina34_cracker 3.40 0067  02.08.2006

@<TRIPOS>MOLECULE
ASD03090884
  48   51    0    0    0
SMALL
NO_CHARGES


@<TRIPOS>ATOM
   1 N1            -0.0175     1.3432    -0.0861 N.am    
   2 C2             0.0012    -0.0044    -0.0680 C.2     
   3 O3             1.0649    -0.5993    -0.0776 O.2     
   4 N4            -1.1464    -0.6880    -0.0395 N.2     
   5 C5             1.2409     2.0928    -0.1174 C.3     
   6 C6             1.6249     3.6495    -3.5384 C.ar    
   7 C7             1.2310     3.4654    -2.2265 C.ar    
   8 C8             1.6486     2.3303    -1.5486 C.ar    
   9 C9             2.4506     1.4192    -2.2187 C.ar    
  10 C10            2.8047     1.6709    -3.5307 C.ar    
  11 N11            2.3885     2.7615    -4.1443 N.ar    
  12 C12           -1.2961     2.0582    -0.0807 C.3     
  13 C13           -1.7241     2.3268     1.3635 C.3     
  14 S14            0.2595    -3.0387    -0.0302 S.3     
  15 C15           -1.1280    -2.0187    -0.0216 C.2     
  16 N16           -2.1987    -2.8518     0.0077 N.pl3   
  17 C17           -1.9391    -4.1884     0.0222 C.2     
  18 C18           -0.6633    -4.5510     0.0062 C.2     
  19 C19           -0.1141    -5.9542     0.0172 C.3     
  20 O20           -7.4524    -1.1574     0.0453 O.3     
  21 C21           -8.0539    -2.4331     0.3354 C.3     
  22 O22           -7.0845    -3.3848    -0.1417 O.3     
  23 C23           -5.8790    -2.7494    -0.0608 C.ar    
  24 C24           -6.1048    -1.3793     0.0543 C.ar    
  25 C25           -4.5832    -3.2363    -0.0763 C.ar    
  26 C26           -3.5113    -2.3592     0.0230 C.ar    
  27 C27           -3.7393    -0.9949     0.1377 C.ar    
  28 C28           -5.0326    -0.5079     0.1538 C.ar    
  29 F29           -8.2518    -2.5814     1.7124 F       
  30 F30           -9.2627    -2.5748    -0.3544 F       
  31 H31            1.1060     3.0502     0.3857 H       
  32 H32            2.0170     1.5211     0.3914 H       
  33 H33            1.3001     4.5288    -4.0748 H       
  34 H34            0.6058     4.1965    -1.7355 H       
  35 H35            2.7947     0.5243    -1.7215 H       
  36 H36            3.4292     0.9662    -4.0596 H       
  37 H37           -1.1850     3.0052    -0.6088 H       
  38 H38           -2.0536     1.4519    -0.5773 H       
  39 H39           -0.9666     2.9331     1.8601 H       
  40 H40           -2.6754     2.8588     1.3676 H       
  41 H41           -1.8351     1.3798     1.8916 H       
  42 H42           -2.7344    -4.9188     0.0455 H       
  43 H43            0.9752    -5.9182    -0.0005 H       
  44 H44           -0.4460    -6.4673     0.9198 H       
  45 H45           -0.4741    -6.4922    -0.8598 H       
  46 H46           -4.4060    -4.2979    -0.1651 H       
  47 H47           -2.9052    -0.3132     0.2149 H       
  48 H48           -5.2076     0.5542     0.2426 H       
@<TRIPOS>BOND
   1    1    2 am
   2    1    5 1
   3    1   12 1
   4    2    3 2
   5    2    4 1
   6    4   15 2
   7    5    8 1
   8    5   31 1
   9    5   32 1
  10    6    7 ar
  11    6   11 ar
  12    6   33 1
  13    7    8 ar
  14    7   34 1
  15    8    9 ar
  16    9   10 ar
  17    9   35 1
  18   10   11 ar
  19   10   36 1
  20   12   13 1
  21   12   37 1
  22   12   38 1
  23   13   39 1
  24   13   40 1
  25   13   41 1
  26   14   15 1
  27   14   18 1
  28   15   16 1
  29   16   17 1
  30   16   26 1
  31   17   18 2
  32   17   42 1
  33   18   19 1
  34   19   43 1
  35   19   44 1
  36   19   45 1
  37   20   21 1
  38   20   24 1
  39   21   22 1
  40   21   29 1
  41   21   30 1
  42   22   23 1
  43   23   24 ar
  44   23   25 ar
  45   24   28 ar
  46   25   26 ar
  47   25   46 1
  48   26   27 ar
  49   27   28 ar
  50   27   47 1
  51   28   48 1

#	End of record

