#	Name: ASD01151099
#	Creating user name:	WinNT
#	Creation time:	15. 06. 2019 19:05

#	Modifying user name:	WinNT
#	Modification time:	15. 06. 2019 19:05

#	Program:	/corina/corina34_cracker 3.40 0067  02.08.2006

@<TRIPOS>MOLECULE
ASD01151099
  44   46    0    0    0
SMALL
NO_CHARGES


@<TRIPOS>ATOM
   1 C1             0.1108     1.5272     0.0752 C.3     
   2 C2             0.1315    -0.0027     0.0668 C.3     
   3 C3             0.9923    -0.5074     1.2266 C.3     
   4 O4            -1.2011    -0.4979     0.2119 O.3     
   5 C5             0.7182    -0.4975    -1.2568 C.3     
   6 N6             0.7381    -1.9623    -1.2648 N.am    
   7 C7             1.8076    -2.6164    -0.7800 C.2     
   8 O8             2.7385    -1.9670    -0.3441 O.2     
   9 N9             1.8916    -3.9557    -0.7561 N.am    
  10 C10            3.0936    -4.5903    -0.2095 C.3     
  11 C11            2.9115    -4.8221     1.2684 C.ar    
  12 C12            3.2894    -3.8470     2.1724 C.ar    
  13 C13            3.1226    -4.0590     3.5280 C.ar    
  14 C14            2.5773    -5.2475     3.9800 C.ar    
  15 Cl15           2.3669    -5.5143     5.6825 Cl      
  16 C16            2.1993    -6.2230     3.0748 C.ar    
  17 C17            2.3614    -6.0076     1.7192 C.ar    
  18 C18            0.8894    -4.7299    -1.2257 C.2     
  19 O19            0.9736    -5.9426    -1.1994 O.2     
  20 C20           -0.3092    -4.0670    -1.7703 C.ar    
  21 C21           -1.3846    -4.7960    -2.2727 C.ar    
  22 C22           -2.4851    -4.1289    -2.7718 C.ar    
  23 Cl23          -3.8291    -5.0307    -3.3995 Cl      
  24 C24           -2.5241    -2.7423    -2.7744 C.ar    
  25 C25           -1.4630    -2.0074    -2.2791 C.ar    
  26 F26           -1.5108    -0.6572    -2.2868 F       
  27 C27           -0.3508    -2.6624    -1.7681 C.ar    
  28 H28            1.1272     1.9049    -0.0355 H       
  29 H29           -0.5025     1.8868    -0.7511 H       
  30 H30           -0.3072     1.8797     1.0181 H       
  31 H31            0.5743    -0.1549     2.1695 H       
  32 H32            1.0071    -1.5973     1.2206 H       
  33 H33            2.0087    -0.1297     1.1159 H       
  34 H34           -1.8037    -0.2169    -0.4902 H       
  35 H35            0.1050    -0.1379    -2.0831 H       
  36 H36            1.7347    -0.1197    -1.3675 H       
  37 H37            3.2598    -5.5446    -0.7092 H       
  38 H38            3.9535    -3.9404    -0.3721 H       
  39 H39            3.7153    -2.9194     1.8195 H       
  40 H40            3.4181    -3.2973     4.2342 H       
  41 H41            1.7739    -7.1511     3.4271 H       
  42 H42            2.0619    -6.7671     1.0121 H       
  43 H43           -1.3574    -5.8757    -2.2721 H       
  44 H44           -3.3911    -2.2321    -3.1674 H       
@<TRIPOS>BOND
   1    1    2 1
   2    1   28 1
   3    1   29 1
   4    1   30 1
   5    2    3 1
   6    2    4 1
   7    2    5 1
   8    3   31 1
   9    3   32 1
  10    3   33 1
  11    4   34 1
  12    5    6 1
  13    5   35 1
  14    5   36 1
  15    6   27 1
  16    6    7 am
  17    7    8 2
  18    7    9 am
  19    9   10 1
  20    9   18 am
  21   10   11 1
  22   10   37 1
  23   10   38 1
  24   11   17 ar
  25   11   12 ar
  26   12   13 ar
  27   12   39 1
  28   13   14 ar
  29   13   40 1
  30   14   15 1
  31   14   16 ar
  32   16   17 ar
  33   16   41 1
  34   17   42 1
  35   18   19 2
  36   18   20 1
  37   20   27 ar
  38   20   21 ar
  39   21   22 ar
  40   21   43 1
  41   22   23 1
  42   22   24 ar
  43   24   25 ar
  44   24   44 1
  45   25   26 1
  46   25   27 ar

#	End of record

