#	Name: ASD01913380
#	Creating user name:	WinNT
#	Creation time:	15. 06. 2019 20:01

#	Modifying user name:	WinNT
#	Modification time:	15. 06. 2019 20:01

#	Program:	/corina/corina34_cracker 3.40 0067  02.08.2006

@<TRIPOS>MOLECULE
ASD01913380
  36   38    0    0    0
SMALL
NO_CHARGES


@<TRIPOS>ATOM
   1 C1            -1.4829     1.3121     1.2694 C.ar    
   2 C2            -1.3060    -0.0637     1.2347 C.ar    
   3 C3            -1.2831    -0.7879     2.4180 C.ar    
   4 C4            -1.4364    -0.1379     3.6272 C.ar    
   5 C5            -1.6126     1.2332     3.6590 C.ar    
   6 C6            -1.6358     1.9572     2.4813 C.ar    
   7 O7            -1.1559    -0.7008     0.0438 O.3     
   8 C8            -0.9920    -2.0498     0.0581 C.ar    
   9 C9             0.2736    -2.5968    -0.1048 C.ar    
  10 C10            0.4463    -3.9688    -0.0907 C.ar    
  11 C11           -0.6382    -4.8033     0.0851 C.ar    
  12 C12           -1.9149    -4.2625     0.2498 C.ar    
  13 C13           -2.0870    -2.8782     0.2410 C.ar    
  14 C14           -3.0793    -5.1535     0.4377 C.2     
  15 N15           -2.9096    -6.4905     0.4504 N.am    
  16 C16           -3.9884    -7.3275     0.7323 C.ar    
  17 O17           -4.1898    -4.6804     0.5809 O.2     
  18 C18           -3.7829    -8.6965     0.8574 C.ar    
  19 C19           -4.8617    -9.5169     1.1374 C.ar    
  20 C20           -6.1157    -8.9359     1.2833 C.ar    
  21 C21           -6.2463    -7.5657     1.1453 C.ar    
  22 N22           -5.1972    -6.8099     0.8835 N.ar    
  23 F23           -7.1952    -9.7008     1.5564 F       
  24 H24           -1.4967     1.8786     0.3500 H       
  25 H25           -1.1459    -1.8589     2.3937 H       
  26 H26           -1.4191    -0.7012     4.5486 H       
  27 H27           -1.7323     1.7395     4.6055 H       
  28 H28           -1.7735     3.0280     2.5088 H       
  29 H29            1.1262    -1.9486    -0.2435 H       
  30 H30            1.4333    -4.3883    -0.2179 H       
  31 H31           -0.4997    -5.8743     0.0949 H       
  32 H32           -3.0720    -2.4539     0.3679 H       
  33 H33           -2.0369    -6.8704     0.2633 H       
  34 H34           -2.7943    -9.1145     0.7373 H       
  35 H35           -4.7321   -10.5842     1.2398 H       
  36 H36           -7.2183    -7.1086     1.2576 H       
@<TRIPOS>BOND
   1    1    2 ar
   2    1    6 ar
   3    1   24 1
   4    2    3 ar
   5    2    7 1
   6    3    4 ar
   7    3   25 1
   8    4    5 ar
   9    4   26 1
  10    5    6 ar
  11    5   27 1
  12    6   28 1
  13    7    8 1
  14    8    9 ar
  15    8   13 ar
  16    9   10 ar
  17    9   29 1
  18   10   11 ar
  19   10   30 1
  20   11   12 ar
  21   11   31 1
  22   12   13 ar
  23   12   14 1
  24   13   32 1
  25   14   15 am
  26   14   17 2
  27   15   16 1
  28   15   33 1
  29   16   18 ar
  30   16   22 ar
  31   18   19 ar
  32   18   34 1
  33   19   20 ar
  34   19   35 1
  35   20   21 ar
  36   20   23 1
  37   21   22 ar
  38   21   36 1

#	End of record

