#	Name: ASD01881627
#	Creating user name:	WinNT
#	Creation time:	15. 06. 2019 19:43

#	Modifying user name:	WinNT
#	Modification time:	15. 06. 2019 19:43

#	Program:	/corina/corina34_cracker 3.40 0067  02.08.2006

@<TRIPOS>MOLECULE
ASD01881627
  49   51    0    0    0
SMALL
NO_CHARGES


@<TRIPOS>ATOM
   1 N1             0.1250     1.1317    -1.1545 N.pl3   
   2 N2             0.1574    -0.1518    -1.0508 N.2     
   3 N3             1.3350    -0.5770    -0.7545 N.2     
   4 C4             2.1726     0.4740    -0.6456 C.ar    
   5 C5             1.3880     1.6133    -0.9073 C.ar    
   6 C6             3.5304     0.6249    -0.3518 C.ar    
   7 C7             4.0827     1.8902    -0.3226 C.ar    
   8 C8             3.2958     3.0095    -0.5833 C.ar    
   9 C9             1.9665     2.8753    -0.8727 C.ar    
  10 O10            5.4033     2.0444    -0.0370 O.3     
  11 C11            5.9405     3.3642    -0.1452 C.3     
  12 C12            6.0180     3.9988     1.2449 C.3     
  13 C13            4.6046     4.1816     1.8015 C.3     
  14 C14            7.3217     3.2967    -0.7442 C.ar    
  15 C15            7.7587     4.3002    -1.5886 C.ar    
  16 C16            9.0256     4.2383    -2.1381 C.ar    
  17 C17            9.8557     3.1731    -1.8429 C.ar    
  18 C18            9.4191     2.1700    -0.9978 C.ar    
  19 C19            8.1538     2.2342    -0.4449 C.ar    
  20 C20           -1.0528     1.9379    -1.4851 C.3     
  21 C21           -1.7839     2.3243    -0.1978 C.3     
  22 C22           -0.8456     3.1356     0.6978 C.3     
  23 C23           -3.0140     3.1662    -0.5430 C.3     
  24 C24           -2.2234     1.0574     0.5390 C.3     
  25 Br25           4.6028    -0.8916     0.0035 Br      
  26 H26            3.7404     3.9934    -0.5568 H       
  27 H27            1.3663     3.7505    -1.0735 H       
  28 H28            5.2962     3.9675    -0.7846 H       
  29 H29            6.5890     3.3502     1.9091 H       
  30 H30            6.5090     4.9694     1.1743 H       
  31 H31            4.0335     4.8302     1.1372 H       
  32 H32            4.1136     3.2110     1.8721 H       
  33 H33            4.6598     4.6337     2.7918 H       
  34 H34            7.1101     5.1324    -1.8192 H       
  35 H35            9.3667     5.0219    -2.7984 H       
  36 H36           10.8453     3.1243    -2.2728 H       
  37 H37           10.0676     1.3377    -0.7675 H       
  38 H38            7.8140     1.4524     0.2183 H       
  39 H39           -0.7397     2.8404    -2.0100 H       
  40 H40           -1.7213     1.3599    -2.1231 H       
  41 H41           -0.5325     4.0381     0.1729 H       
  42 H42           -1.3664     3.4109     1.6149 H       
  43 H43            0.0307     2.5358     0.9437 H       
  44 H44           -3.6825     2.5882    -1.1810 H       
  45 H45           -3.5348     3.4415     0.3741 H       
  46 H46           -2.7009     4.0687    -1.0679 H       
  47 H47           -1.3471     0.4577     0.7849 H       
  48 H48           -2.7443     1.3327     1.4561 H       
  49 H49           -2.8919     0.4794    -0.0990 H       
@<TRIPOS>BOND
   1    1    2 1
   2    1    5 1
   3    1   20 1
   4    2    3 2
   5    3    4 1
   6    4    5 ar
   7    4    6 ar
   8    5    9 ar
   9    6    7 ar
  10    6   25 1
  11    7    8 ar
  12    7   10 1
  13    8    9 ar
  14    8   26 1
  15    9   27 1
  16   10   11 1
  17   11   12 1
  18   11   14 1
  19   11   28 1
  20   12   13 1
  21   12   29 1
  22   12   30 1
  23   13   31 1
  24   13   32 1
  25   13   33 1
  26   14   15 ar
  27   14   19 ar
  28   15   16 ar
  29   15   34 1
  30   16   17 ar
  31   16   35 1
  32   17   18 ar
  33   17   36 1
  34   18   19 ar
  35   18   37 1
  36   19   38 1
  37   20   21 1
  38   20   39 1
  39   20   40 1
  40   21   22 1
  41   21   23 1
  42   21   24 1
  43   22   41 1
  44   22   42 1
  45   22   43 1
  46   23   44 1
  47   23   45 1
  48   23   46 1
  49   24   47 1
  50   24   48 1
  51   24   49 1

#	End of record

