#	Name: ASD04880693
#	Creating user name:	WinNT
#	Creation time:	15. 06. 2019 20:53

#	Modifying user name:	WinNT
#	Modification time:	15. 06. 2019 20:53

#	Program:	/corina/corina34_cracker 3.40 0067  02.08.2006

@<TRIPOS>MOLECULE
ASD04880693
  48   50    0    0    0
SMALL
NO_CHARGES


@<TRIPOS>ATOM
   1 C1             0.4129     1.0203     0.4004 C.ar    
   2 C2             0.5497    -0.3515     0.4291 C.ar    
   3 C3             1.8098    -0.9279     0.3606 C.ar    
   4 C4             2.9431    -0.1236     0.2621 C.ar    
   5 C5             2.8139     1.2523     0.2323 C.ar    
   6 C6             1.5450     1.8331     0.3017 C.ar    
   7 O7             1.9390    -2.2808     0.3902 O.3     
   8 C8             0.7361    -3.0453     0.4928 C.3     
   9 N9             2.3755     4.1428     0.2748 N.2     
  10 N10            1.9745     5.4768     0.2404 N.am    
  11 C11            0.5043     5.5310     0.2087 C.3     
  12 C12            0.0873     4.0471     0.2289 C.3     
  13 C13            1.4011     3.3000     0.2709 C.2     
  14 C14            2.7986     6.5433     0.2372 C.2     
  15 C15            4.2855     6.3470     0.3842 C.3     
  16 O16            2.3434     7.6612     0.1160 O.2     
  17 C17            4.7540     6.9957     1.6612 C.ar    
  18 O18            4.5799     4.9493     0.4241 O.3     
  19 C19            4.8480     6.2500     2.8213 C.ar    
  20 C20            5.2772     6.8449     3.9928 C.ar    
  21 C21            5.6128     8.1862     4.0050 C.ar    
  22 C22            5.5196     8.9326     2.8458 C.ar    
  23 C23            5.0955     8.3362     1.6714 C.ar    
  24 O24            4.1767    -0.6923     0.1956 O.3     
  25 C25            5.2944     0.1925     0.0958 C.3     
  26 C26            5.8639     4.6104    -0.1034 C.3     
  27 Cl27           4.9851     9.2715     0.2131 Cl      
  28 H28           -0.5695     1.4662     0.4498 H       
  29 H29           -0.3261    -0.9788     0.5054 H       
  30 H30            3.6917     1.8768     0.1563 H       
  31 H31            0.0953    -2.8309    -0.3625 H       
  32 H32            0.9807    -4.1074     0.5064 H       
  33 H33            0.2148    -2.7807     1.4127 H       
  34 H34            0.1205     6.0493     1.0874 H       
  35 H35            0.1579     6.0144    -0.7048 H       
  36 H36           -0.5054     3.8286     1.1172 H       
  37 H37           -0.4680     3.7937    -0.6742 H       
  38 H38            4.7976     6.8021    -0.4636 H       
  39 H39            4.5857     5.2024     2.8125 H       
  40 H40            5.3502     6.2620     4.8990 H       
  41 H41            5.9474     8.6506     4.9208 H       
  42 H42            5.7814     9.9803     2.8555 H       
  43 H43            5.3197     0.8457     0.9680 H       
  44 H44            6.2152    -0.3891     0.0506 H       
  45 H45            5.2009     0.7956    -0.8073 H       
  46 H46            5.9219     4.9216    -1.1465 H       
  47 H47            6.6384     5.1187     0.4709 H       
  48 H48            6.0110     3.5324    -0.0372 H       
@<TRIPOS>BOND
   1    1    2 ar
   2    1    6 ar
   3    1   28 1
   4    2    3 ar
   5    2   29 1
   6    3    4 ar
   7    3    7 1
   8    4    5 ar
   9    4   24 1
  10    5    6 ar
  11    5   30 1
  12    6   13 1
  13    7    8 1
  14    8   31 1
  15    8   32 1
  16    8   33 1
  17    9   10 1
  18    9   13 2
  19   10   11 1
  20   10   14 am
  21   11   12 1
  22   11   34 1
  23   11   35 1
  24   12   13 1
  25   12   36 1
  26   12   37 1
  27   14   15 1
  28   14   16 2
  29   15   17 1
  30   15   18 1
  31   15   38 1
  32   17   19 ar
  33   17   23 ar
  34   18   26 1
  35   19   20 ar
  36   19   39 1
  37   20   21 ar
  38   20   40 1
  39   21   22 ar
  40   21   41 1
  41   22   23 ar
  42   22   42 1
  43   23   27 1
  44   24   25 1
  45   25   43 1
  46   25   44 1
  47   25   45 1
  48   26   46 1
  49   26   47 1
  50   26   48 1

#	End of record

