#	Name: ASD01152185
#	Creating user name:	WinNT
#	Creation time:	15. 06. 2019 19:05

#	Modifying user name:	WinNT
#	Modification time:	15. 06. 2019 19:05

#	Program:	/corina/corina34_cracker 3.40 0067  02.08.2006

@<TRIPOS>MOLECULE
ASD01152185
  55   57    0    0    0
SMALL
NO_CHARGES


@<TRIPOS>ATOM
   1 N1            -0.0164     1.3554     0.0095 N.pl3   
   2 C2             0.0021    -0.0041     0.0020 C.2     
   3 N3            -1.2341    -0.4570     0.0119 N.2     
   4 C4            -2.0959     0.5635     0.0259 C.2     
   5 C5            -1.3590     1.7412     0.0305 C.2     
   6 N6            -3.4826     0.4646     0.0385 N.am    
   7 N7             1.1352    -0.7843    -0.0138 N.3     
   8 C8            -1.8631     3.0570     0.0453 C.2     
   9 O9            -1.0125     4.1060     0.0485 O.3     
  10 O10           -3.0658     3.2482     0.0551 O.2     
  11 C11           -1.5929     5.4117     0.0637 C.3     
  12 C12           -2.4506     5.5741     1.3202 C.3     
  13 C13           -0.4819     6.4637     0.0651 C.3     
  14 C14           -2.4676     5.5955    -1.1781 C.3     
  15 C15            1.0969     2.2057     0.0034 C.ar    
  16 C16            1.3312     3.0374    -1.0835 C.ar    
  17 C17            2.4294     3.8750    -1.0863 C.ar    
  18 C18            3.2954     3.8855    -0.0083 C.ar    
  19 C19            3.0651     3.0580     1.0754 C.ar    
  20 C20            1.9653     2.2227     1.0868 C.ar    
  21 C21           -4.0718    -0.7475     0.0376 C.2     
  22 O22           -3.3906    -1.7546     0.0258 O.2     
  23 N23           -5.4161    -0.8433     0.0498 N.am    
  24 C24            0.7910    -2.2124    -0.0179 C.3     
  25 C25            1.9914    -0.4458    -1.1585 C.3     
  26 C26           -6.0273    -2.1005     0.0489 C.2     
  27 C27           -7.3503    -2.3175     0.0602 C.2     
  28 C28           -7.7188    -3.6526     0.0566 C.2     
  29 C29           -6.7041    -4.5167     0.0424 C.2     
  30 S30           -5.1791    -3.6411     0.0250 S.3     
  31 H31           -4.0260     1.2680     0.0479 H       
  32 H32           -1.8274     5.4431     2.2049 H       
  33 H33           -2.8933     6.5701     1.3318 H       
  34 H34           -3.2421     4.8247     1.3191 H       
  35 H35            0.1292     6.3480    -0.8301 H       
  36 H36           -0.9246     7.4597     0.0767 H       
  37 H37            0.1413     6.3327     0.9498 H       
  38 H38           -3.2591     4.8461    -1.1792 H       
  39 H39           -2.9103     6.5915    -1.1666 H       
  40 H40           -1.8566     5.4799    -2.0733 H       
  41 H41            0.6555     3.0291    -1.9260 H       
  42 H42            2.6121     4.5221    -1.9314 H       
  43 H43            4.1537     4.5411    -0.0130 H       
  44 H44            3.7435     3.0682     1.9157 H       
  45 H45            1.7857     1.5769     1.9337 H       
  46 H46           -5.9595    -0.0399     0.0592 H       
  47 H47            0.1972    -2.4405    -0.9031 H       
  48 H48            1.7048    -2.8063    -0.0305 H       
  49 H49            0.2155    -2.4500     0.8767 H       
  50 H50            2.2886     0.6008    -1.0930 H       
  51 H51            2.8798    -1.0772    -1.1469 H       
  52 H52            1.4411    -0.6099    -2.0850 H       
  53 H53           -8.0721    -1.5142     0.0716 H       
  54 H54           -8.7512    -3.9698     0.0650 H       
  55 H55           -6.8035    -5.5921     0.0377 H       
@<TRIPOS>BOND
   1    1    2 1
   2    1   15 1
   3    1    5 1
   4    2    3 2
   5    2    7 1
   6    3    4 1
   7    4    5 2
   8    4    6 1
   9    5    8 1
  10    6   21 am
  11    6   31 1
  12    7   24 1
  13    7   25 1
  14    8    9 1
  15    8   10 2
  16    9   11 1
  17   11   12 1
  18   11   13 1
  19   11   14 1
  20   12   32 1
  21   12   33 1
  22   12   34 1
  23   13   35 1
  24   13   36 1
  25   13   37 1
  26   14   38 1
  27   14   39 1
  28   14   40 1
  29   15   16 ar
  30   15   20 ar
  31   16   17 ar
  32   16   41 1
  33   17   18 ar
  34   17   42 1
  35   18   19 ar
  36   18   43 1
  37   19   20 ar
  38   19   44 1
  39   20   45 1
  40   21   22 2
  41   21   23 am
  42   23   26 1
  43   23   46 1
  44   24   47 1
  45   24   48 1
  46   24   49 1
  47   25   50 1
  48   25   51 1
  49   25   52 1
  50   26   27 2
  51   26   30 1
  52   27   28 1
  53   27   53 1
  54   28   29 2
  55   28   54 1
  56   29   30 1
  57   29   55 1

#	End of record

