#	Name: ASD01814724
#	Creating user name:	WinNT
#	Creation time:	15. 06. 2019 19:32

#	Modifying user name:	WinNT
#	Modification time:	15. 06. 2019 19:32

#	Program:	/corina/corina34_cracker 3.40 0067  02.08.2006

@<TRIPOS>MOLECULE
ASD01814724
  57   61    0    0    0
SMALL
NO_CHARGES


@<TRIPOS>ATOM
   1 C1            -0.0225     1.8097     0.0120 C.3     
   2 S2             0.0021    -0.0041     0.0020 S.3     
   3 C3             0.8516    -0.3807    -1.4950 C.ar    
   4 C4             1.0614    -1.7088    -1.8536 C.ar    
   5 C5             1.7297    -1.9900    -3.0314 C.ar    
   6 C6             2.1675    -0.9300    -3.8144 C.ar    
   7 C7             2.8994    -1.1893    -5.1060 C.3     
   8 C8             1.9068    -1.2818    -6.2361 C.ar    
   9 C9             1.4374    -2.4936    -6.6292 C.ar    
  10 C10            0.5123    -2.5998    -7.6809 C.ar    
  11 C11            0.0102    -3.9220    -8.1120 C.2     
  12 O12            0.1975    -4.9036    -7.4198 O.2     
  13 N13           -0.6562    -4.0307    -9.2766 N.am    
  14 C14           -0.7523    -2.8970   -10.1945 C.3     
  15 C15           -0.9729    -1.5964    -9.4260 C.3     
  16 C16            0.0455    -1.4647    -8.3251 C.ar    
  17 C17            0.5250    -0.2053    -7.9399 C.ar    
  18 C18            0.0901     0.9682    -8.5810 C.ar    
  19 C19            0.5762     2.1749    -8.1802 C.ar    
  20 C20            1.5013     2.2660    -7.1425 C.ar    
  21 C21            1.9459     1.1512    -6.4993 C.ar    
  22 C22            1.4628    -0.1116    -6.8793 C.ar    
  23 C23           -1.2932    -5.3020    -9.6289 C.3     
  24 H24           -1.7830    -5.2082   -10.5981 H       
  25 C25           -0.2327    -6.4054    -9.6954 C.3     
  26 C26           -0.9172    -7.7434    -9.9863 C.3     
  27 O27           -1.8902    -8.0093    -8.9739 O.3     
  28 C28           -2.9331    -7.0354    -8.8969 C.3     
  29 C29           -2.3311    -5.6677    -8.5634 C.3     
  30 H30           -1.8502    -5.7113    -7.5862 H       
  31 O31           -3.3645    -4.6809    -8.5448 O.3     
  32 C32            1.9251     0.3640    -3.3980 C.ar    
  33 N33            1.2802     0.6030    -2.2722 N.ar    
  34 H34            1.0001     2.1870     0.0043 H       
  35 H35           -0.5497     2.1708    -0.8711 H       
  36 H36           -0.5327     2.1613     0.9088 H       
  37 H37            0.7075    -2.5091    -1.2206 H       
  38 H38            1.9073    -3.0110    -3.3352 H       
  39 H39            3.5953    -0.3730    -5.2995 H       
  40 H40            3.4509    -2.1264    -5.0292 H       
  41 H41            1.7796    -3.3866    -6.1274 H       
  42 H42            0.1704    -2.8218   -10.7699 H       
  43 H43           -1.5876    -3.0571   -10.8763 H       
  44 H44           -0.8776    -0.7525   -10.1093 H       
  45 H45           -1.9737    -1.5974    -8.9940 H       
  46 H46           -0.6258     0.9124    -9.3877 H       
  47 H47            0.2400     3.0746    -8.6741 H       
  48 H48            1.8716     3.2356    -6.8439 H       
  49 H49            2.6638     1.2381    -5.6971 H       
  50 H50            0.4784    -6.1796   -10.4901 H       
  51 H51            0.2919    -6.4643    -8.7418 H       
  52 H52           -1.4077    -7.6970   -10.9586 H       
  53 H53           -0.1723    -8.5391    -9.9924 H       
  54 H54           -3.4499    -6.9797    -9.8549 H       
  55 H55           -3.6403    -7.3209    -8.1182 H       
  56 H56           -4.0575    -4.8493    -7.8918 H       
  57 H57            2.2640     1.1912    -4.0041 H       
@<TRIPOS>BOND
   1    1    2 1
   2    1   34 1
   3    1   35 1
   4    1   36 1
   5    2    3 1
   6    3   33 ar
   7    3    4 ar
   8    4    5 ar
   9    4   37 1
  10    5    6 ar
  11    5   38 1
  12    6    7 1
  13    6   32 ar
  14    7    8 1
  15    7   39 1
  16    7   40 1
  17    8   22 ar
  18    8    9 ar
  19    9   10 ar
  20    9   41 1
  21   10   16 ar
  22   10   11 1
  23   11   12 2
  24   11   13 am
  25   13   14 1
  26   13   23 1
  27   14   15 1
  28   14   42 1
  29   14   43 1
  30   15   16 1
  31   15   44 1
  32   15   45 1
  33   16   17 ar
  34   17   22 ar
  35   17   18 ar
  36   18   19 ar
  37   18   46 1
  38   19   20 ar
  39   19   47 1
  40   20   21 ar
  41   20   48 1
  42   21   22 ar
  43   21   49 1
  44   23   24 1
  45   23   29 1
  46   23   25 1
  47   25   26 1
  48   25   50 1
  49   25   51 1
  50   26   27 1
  51   26   52 1
  52   26   53 1
  53   27   28 1
  54   28   29 1
  55   28   54 1
  56   28   55 1
  57   29   30 1
  58   29   31 1
  59   31   56 1
  60   32   33 ar
  61   32   57 1

#	End of record

