#	Name: ASD03430923
#	Creating user name:	WinNT
#	Creation time:	15. 06. 2019 20:41

#	Modifying user name:	WinNT
#	Modification time:	15. 06. 2019 20:41

#	Program:	/corina/corina34_cracker 3.40 0067  02.08.2006

@<TRIPOS>MOLECULE
ASD03430923
  50   54    0    0    0
SMALL
NO_CHARGES


@<TRIPOS>ATOM
   1 O1            -0.0175     1.4360     0.0099 O.3     
   2 C2             0.0021    -0.0041     0.0020 C.3     
   3 C3             1.3436    -0.3146    -0.6769 C.3     
   4 C4             2.1580     0.9230    -0.4125 C.ar    
   5 C5             1.2629     1.9055     0.0002 C.ar    
   6 C6             1.7498     3.1663     0.3306 C.ar    
   7 C7             3.1040     3.4415     0.2430 C.ar    
   8 C8             3.9880     2.4542    -0.1765 C.ar    
   9 C9             3.5064     1.1965    -0.5056 C.ar    
  10 N10            2.1460    -2.4048    -1.1377 N.am    
  11 C11            1.9826    -1.5493    -0.1090 C.2     
  12 C12            1.1773    -0.5906    -2.1416 C.ar    
  13 C13            0.6652     0.1338    -3.1942 C.ar    
  14 C14            0.6461    -0.4106    -4.4664 C.ar    
  15 C15            1.1433    -1.6832    -4.6779 C.ar    
  16 C16            1.6595    -2.4127    -3.6266 C.ar    
  17 C17            1.6832    -1.8727    -2.3435 C.ar    
  18 O18            2.2913    -1.7393     1.0484 O.2     
  19 C19            2.7400    -3.7376    -1.0064 C.3     
  20 C20            1.6408    -4.7585    -0.7058 C.3     
  21 C21            2.2611    -6.1503    -0.5687 C.3     
  22 C22            3.1848    -6.1792     0.6506 C.3     
  23 O23            5.3238     2.7037    -0.2624 O.3     
  24 C24            5.7233     4.0785    -0.2736 C.3     
  25 C25            4.9555     4.8111     0.8349 C.3     
  26 O26            3.5545     4.6845     0.5687 O.3     
  27 C27            1.1510    -7.1883    -0.3923 C.3     
  28 H28           -0.0175    -0.3971     1.0185 H       
  29 H29           -0.8284    -0.3992    -0.5830 H       
  30 H30            1.0664     3.9361     0.6573 H       
  31 H31            4.1897     0.4280    -0.8357 H       
  32 H32            0.2776     1.1279    -3.0270 H       
  33 H33            0.2435     0.1573    -5.2921 H       
  34 H34            1.1273    -2.1085    -5.6705 H       
  35 H35            2.0458    -3.4063    -3.7995 H       
  36 H36            3.2402    -4.0057    -1.9370 H       
  37 H37            3.4648    -3.7337    -0.1924 H       
  38 H38            1.1406    -4.4904     0.2248 H       
  39 H39            0.9160    -4.7623    -1.5199 H       
  40 H40            2.8359    -6.3819    -1.4655 H       
  41 H41            2.6101    -5.9476     1.5474 H       
  42 H42            3.6267    -7.1708     0.7483 H       
  43 H43            3.9757    -5.4397     0.5249 H       
  44 H44            6.7950     4.1513    -0.0883 H       
  45 H45            5.4858     4.5224    -1.2403 H       
  46 H46            5.1880     4.3630     1.8010 H       
  47 H47            5.2348     5.8646     0.8410 H       
  48 H48            0.4930    -7.1677    -1.2610 H       
  49 H49            1.5929    -8.1799    -0.2947 H       
  50 H50            0.5763    -6.9568     0.5044 H       
@<TRIPOS>BOND
   1    1    2 1
   2    1    5 1
   3    2    3 1
   4    2   28 1
   5    2   29 1
   6    3    4 1
   7    3   11 1
   8    3   12 1
   9    4    5 ar
  10    4    9 ar
  11    5    6 ar
  12    6    7 ar
  13    6   30 1
  14    7    8 ar
  15    7   26 1
  16    8    9 ar
  17    8   23 1
  18    9   31 1
  19   10   11 am
  20   10   17 1
  21   10   19 1
  22   11   18 2
  23   12   13 ar
  24   12   17 ar
  25   13   14 ar
  26   13   32 1
  27   14   15 ar
  28   14   33 1
  29   15   16 ar
  30   15   34 1
  31   16   17 ar
  32   16   35 1
  33   19   20 1
  34   19   36 1
  35   19   37 1
  36   20   21 1
  37   20   38 1
  38   20   39 1
  39   21   22 1
  40   21   27 1
  41   21   40 1
  42   22   41 1
  43   22   42 1
  44   22   43 1
  45   23   24 1
  46   24   25 1
  47   24   44 1
  48   24   45 1
  49   25   26 1
  50   25   46 1
  51   25   47 1
  52   27   48 1
  53   27   49 1
  54   27   50 1

#	End of record

