#	Name: ASD05430636
#	Creating user name:	WinNT
#	Creation time:	15. 06. 2019 21:00

#	Modifying user name:	WinNT
#	Modification time:	15. 06. 2019 21:00

#	Program:	/corina/corina34_cracker 3.40 0067  02.08.2006

@<TRIPOS>MOLECULE
ASD05430636
  34   36    0    0    0
SMALL
NO_CHARGES


@<TRIPOS>ATOM
   1 C1            -0.0168     1.3893     0.0097 C.ar    
   2 C2             0.0021    -0.0041     0.0020 C.ar    
   3 C3             1.2131    -0.6803    -0.0132 C.ar    
   4 C4             2.3976     0.0291    -0.0207 C.ar    
   5 C5             2.3770     1.4104    -0.0126 C.ar    
   6 C6             1.1672     2.0912     0.0021 C.ar    
   7 C7             3.6721     2.1808    -0.0203 C.3     
   8 C8             4.4908     1.8145     1.2192 C.3     
   9 C9             4.4674     1.8288    -1.2791 C.3     
  10 N10           -1.2021    -0.7220     0.0101 N.pl3   
  11 C11           -1.3440    -2.0617     0.0043 C.2     
  12 N12           -2.5009    -0.1878     0.0320 N.2     
  13 C13           -3.3267    -1.2015     0.0323 C.2     
  14 N14           -2.6239    -2.3336     0.0156 N.2     
  15 C15           -4.8304    -1.1052     0.0525 C.3     
  16 C16            0.4629     3.4220     0.0164 C.3     
  17 C17           -0.8467     2.6454     0.0190 C.3     
  18 H18            1.2294    -1.7602    -0.0188 H       
  19 H19            3.3411    -0.4964    -0.0325 H       
  20 H20            3.4591     3.2498    -0.0122 H       
  21 H21            4.7038     0.7456     1.2111 H       
  22 H22            5.4276     2.3718     1.2136 H       
  23 H23            3.9242     2.0653     2.1160 H       
  24 H24            3.8842     2.0897    -2.1622 H       
  25 H25            5.4042     2.3860    -1.2847 H       
  26 H26            4.6805     0.7599    -1.2872 H       
  27 H27           -0.5418    -2.7847    -0.0078 H       
  28 H28           -5.2061    -1.0717    -0.9702 H       
  29 H29           -5.2434    -1.9753     0.5628 H       
  30 H30           -5.1295    -0.1991     0.5793 H       
  31 H31            0.6341     3.9964     0.9267 H       
  32 H32            0.6182     4.0074    -0.8898 H       
  33 H33           -1.4396     2.7869    -0.8846 H       
  34 H34           -1.4281     2.7736     0.9321 H       
@<TRIPOS>BOND
   1    1    2 ar
   2    1    6 ar
   3    1   17 1
   4    2    3 ar
   5    2   10 1
   6    3    4 ar
   7    3   18 1
   8    4    5 ar
   9    4   19 1
  10    5    6 ar
  11    5    7 1
  12    6   16 1
  13    7    8 1
  14    7    9 1
  15    7   20 1
  16    8   21 1
  17    8   22 1
  18    8   23 1
  19    9   24 1
  20    9   25 1
  21    9   26 1
  22   10   11 1
  23   10   12 1
  24   11   14 2
  25   11   27 1
  26   12   13 2
  27   13   14 1
  28   13   15 1
  29   15   28 1
  30   15   29 1
  31   15   30 1
  32   16   17 1
  33   16   31 1
  34   16   32 1
  35   17   33 1
  36   17   34 1

#	End of record

