#	Name: ASD01140426
#	Creating user name:	WinNT
#	Creation time:	15. 06. 2019 19:00

#	Modifying user name:	WinNT
#	Modification time:	15. 06. 2019 19:00

#	Program:	/corina/corina34_cracker 3.40 0067  02.08.2006

@<TRIPOS>MOLECULE
ASD01140426
  52   53    0    0    0
SMALL
NO_CHARGES


@<TRIPOS>ATOM
   1 C1            -0.0168     1.3843     0.0097 C.ar    
   2 C2             0.0021    -0.0041     0.0020 C.ar    
   3 N3            -1.1188    -0.6984     0.0094 N.ar    
   4 C4            -2.2996    -0.1149     0.0243 C.ar    
   5 C5            -2.4064     1.2761     0.0324 C.ar    
   6 C6            -1.2378     2.0449     0.0307 C.ar    
   7 O7             1.1460     2.0880     0.0023 O.3     
   8 C8             2.3602     1.3347    -0.0133 C.3     
   9 C9             3.5541     2.2916    -0.0196 C.3     
  10 C10           -3.6920     1.9068     0.0476 C.1     
  11 C11           -4.7459     2.4239     0.0601 C.1     
  12 C12            4.8743     1.5043    -0.1625 C.3     
  13 C13            5.8839     2.2482     0.7358 C.3     
  14 C14            5.0887     3.4224     1.3459 C.3     
  15 N15            3.6706     2.9832     1.2900 N.3     
  16 C16            2.7599     4.1338     1.3606 C.3     
  17 C17           -6.0673     3.0722     0.0758 C.3     
  18 N18           -5.8973     4.5273     0.0816 N.am    
  19 C19           -6.9784     5.3320     0.0958 C.2     
  20 O20           -6.8222     6.6693     0.1011 O.3     
  21 C21           -8.0306     7.4741     0.1165 C.3     
  22 C22           -8.8432     7.1501     1.3718 C.3     
  23 O23           -8.0941     4.8507     0.1038 O.2     
  24 C24           -7.6555     8.9574     0.1206 C.3     
  25 C25           -8.8666     7.1628    -1.1265 C.3     
  26 H26            0.9491    -0.5231    -0.0106 H       
  27 H27           -3.1944    -0.7196     0.0300 H       
  28 H28           -1.2842     3.1239     0.0371 H       
  29 H29            2.4065     0.7017     0.8729 H       
  30 H30            2.3895     0.7113    -0.9070 H       
  31 H31            3.4546     3.0169    -0.8271 H       
  32 H32            4.7432     0.4791     0.1837 H       
  33 H33            5.2108     1.5145    -1.1992 H       
  34 H34            6.2483     1.5882     1.5230 H       
  35 H35            6.7159     2.6236     0.1400 H       
  36 H36            5.3936     3.5922     2.3786 H       
  37 H37            5.2304     4.3262     0.7533 H       
  38 H38            2.9509     4.8004     0.5195 H       
  39 H39            1.7285     3.7838     1.3199 H       
  40 H40            2.9248     4.6709     2.2946 H       
  41 H41           -6.6282     2.7755    -0.8105 H       
  42 H42           -6.6115     2.7664     0.9694 H       
  43 H43           -5.0067     4.9116     0.0752 H       
  44 H44           -8.2476     7.3719     2.2574 H       
  45 H45           -9.7503     7.7543     1.3834 H       
  46 H46           -9.1104     6.0934     1.3690 H       
  47 H47           -7.0767     9.1882    -0.7737 H       
  48 H48           -8.5627     9.5616     0.1321 H       
  49 H49           -7.0600     9.1792     1.0061 H       
  50 H50           -9.1338     6.1061    -1.1294 H       
  51 H51           -9.7737     7.7670    -1.1149 H       
  52 H52           -8.2877     7.3936    -2.0208 H       
@<TRIPOS>BOND
   1    1    2 ar
   2    1    7 1
   3    1    6 ar
   4    2    3 ar
   5    2   26 1
   6    3    4 ar
   7    4    5 ar
   8    4   27 1
   9    5    6 ar
  10    5   10 1
  11    6   28 1
  12    7    8 1
  13    8    9 1
  14    8   29 1
  15    8   30 1
  16    9   12 1
  17    9   15 1
  18    9   31 1
  19   10   11 3
  20   11   17 1
  21   12   13 1
  22   12   32 1
  23   12   33 1
  24   13   14 1
  25   13   34 1
  26   13   35 1
  27   14   15 1
  28   14   36 1
  29   14   37 1
  30   15   16 1
  31   16   38 1
  32   16   39 1
  33   16   40 1
  34   17   18 1
  35   17   41 1
  36   17   42 1
  37   18   19 am
  38   18   43 1
  39   19   20 1
  40   19   23 2
  41   20   21 1
  42   21   22 1
  43   21   24 1
  44   21   25 1
  45   22   44 1
  46   22   45 1
  47   22   46 1
  48   24   47 1
  49   24   48 1
  50   24   49 1
  51   25   50 1
  52   25   51 1
  53   25   52 1

#	End of record

