#	Name: ASD01911626
#	Creating user name:	WinNT
#	Creation time:	15. 06. 2019 19:58

#	Modifying user name:	WinNT
#	Modification time:	15. 06. 2019 19:58

#	Program:	/corina/corina34_cracker 3.40 0067  02.08.2006

@<TRIPOS>MOLECULE
ASD01911626
  37   39    0    0    0
SMALL
NO_CHARGES


@<TRIPOS>ATOM
   1 O1             0.0021    -0.0041     0.0020 O.2     
   2 C2            -0.0144     1.2130     0.0087 C.2     
   3 C3             1.2443     1.9627     0.0007 C.2     
   4 C4             2.5022     1.4231    -0.0142 C.2     
   5 S5             1.4047     3.7180     0.0009 S.3     
   6 C6             3.1584     3.5561    -0.0111 C.2     
   7 N7             3.4785     2.2858    -0.0189 N.2     
   8 C8             4.0896     4.6439    -0.0173 C.1     
   9 C9             4.8531     5.5357    -0.0225 C.1     
  10 C10            5.7843     6.6236    -0.0287 C.ar    
  11 C11            7.1595     6.3712    -0.0382 C.ar    
  12 C12            7.5857     8.7278    -0.0408 C.ar    
  13 C13            6.2259     8.9857    -0.0372 C.ar    
  14 C14            5.3229     7.9435    -0.0312 C.ar    
  15 N15           -1.1906     1.8709     0.0179 N.am    
  16 C16            8.0500     7.4241    -0.0441 C.ar    
  17 C17           -2.4493     1.1212     0.0198 C.3     
  18 C18           -3.6079     2.0849     0.0305 C.ar    
  19 C19           -4.1450     2.5333    -1.1617 C.ar    
  20 C20           -5.2077     3.4173    -1.1519 C.ar    
  21 C21           -5.7337     3.8524     0.0502 C.ar    
  22 C22           -5.1972     3.4032     1.2424 C.ar    
  23 C23           -4.1373     2.5159     1.2325 C.ar    
  24 H24            2.6734     0.3567    -0.0212 H       
  25 H25            7.5234     5.3544    -0.0405 H       
  26 H26            8.2880     9.5483    -0.0458 H       
  27 H27            5.8711    10.0057    -0.0342 H       
  28 H28            4.2621     8.1462    -0.0288 H       
  29 H29           -1.2038     2.8408     0.0232 H       
  30 H30            9.1126     7.2308    -0.0511 H       
  31 H31           -2.5028     0.4987    -0.8734 H       
  32 H32           -2.4943     0.4890     0.9065 H       
  33 H33           -3.7340     2.1934    -2.1008 H       
  34 H34           -5.6269     3.7682    -2.0833 H       
  35 H35           -6.5635     4.5436     0.0579 H       
  36 H36           -5.6079     3.7435     2.1815 H       
  37 H37           -3.7181     2.1650     2.1640 H       
@<TRIPOS>BOND
   1    1    2 2
   2    2    3 1
   3    2   15 am
   4    3    4 2
   5    3    5 1
   6    4    7 1
   7    4   24 1
   8    5    6 1
   9    6    7 2
  10    6    8 1
  11    8    9 3
  12    9   10 1
  13   10   11 ar
  14   10   14 ar
  15   11   16 ar
  16   11   25 1
  17   12   13 ar
  18   12   16 ar
  19   12   26 1
  20   13   14 ar
  21   13   27 1
  22   14   28 1
  23   15   17 1
  24   15   29 1
  25   16   30 1
  26   17   18 1
  27   17   31 1
  28   17   32 1
  29   18   19 ar
  30   18   23 ar
  31   19   20 ar
  32   19   33 1
  33   20   21 ar
  34   20   34 1
  35   21   22 ar
  36   21   35 1
  37   22   23 ar
  38   22   36 1
  39   23   37 1

#	End of record

