#	Name: ASD00190012
#	Creating user name:	WinNT
#	Creation time:	15. 06. 2019 18:33

#	Modifying user name:	WinNT
#	Modification time:	15. 06. 2019 18:33

#	Program:	/corina/corina34_cracker 3.40 0067  02.08.2006

@<TRIPOS>MOLECULE
ASD00190012
  47   51    0    0    0
SMALL
NO_CHARGES


@<TRIPOS>ATOM
   1 C1            -0.0168     1.3859     0.0097 C.ar    
   2 C2             0.0021    -0.0041     0.0020 C.ar    
   3 C3             1.1802    -0.6902    -0.0125 C.ar    
   4 C4             2.3960     0.0106    -0.0204 C.ar    
   5 C5             2.3702     1.4250    -0.0130 C.ar    
   6 C6             1.1483     2.0987     0.0024 C.ar    
   7 N7             3.5675    -0.6426    -0.0342 N.ar    
   8 C8             4.7275    -0.0223    -0.0415 C.ar    
   9 C9             4.8198     1.3781    -0.0354 C.ar    
  10 C10            3.6469     2.1444    -0.0214 C.ar    
  11 N11            5.8657     2.2772    -0.0403 N.pl3   
  12 C12            5.3167     3.5317    -0.0291 C.2     
  13 N13            4.0016     3.4333    -0.0181 N.2     
  14 N14            5.8930    -0.7739    -0.0553 N.pl3   
  15 C15            6.0722     4.7869    -0.0292 C.2     
  16 C16            7.4149     4.9203    -0.0406 C.2     
  17 C17            7.7851     6.3306    -0.0364 C.2     
  18 C18            6.7017     7.1042    -0.0224 C.2     
  19 C19            5.4996     6.1870    -0.0231 C.3     
  20 C20            5.8209    -2.2371    -0.0615 C.3     
  21 C21            7.2365    -2.8173    -0.0767 C.3     
  22 C22            7.1625    -4.3225    -0.0831 C.ar    
  23 C23            7.1179    -5.0072    -1.2831 C.ar    
  24 C24            7.0499    -6.3879    -1.2889 C.ar    
  25 C25            7.0269    -7.0838    -0.0948 C.ar    
  26 C26            7.0724    -6.3991     1.1052 C.ar    
  27 C27            7.1447    -5.0187     1.1110 C.ar    
  28 H28           -0.9624     1.9076     0.0170 H       
  29 H29           -0.9305    -0.5487     0.0080 H       
  30 H30            1.1778    -1.7702    -0.0176 H       
  31 H31            1.1239     3.1784     0.0077 H       
  32 H32            6.8114     2.0617    -0.0496 H       
  33 H33            6.7558    -0.3307    -0.0609 H       
  34 H34            8.1160     4.0989    -0.0509 H       
  35 H35            8.8007     6.6978    -0.0436 H       
  36 H36            6.6847     8.1841    -0.0165 H       
  37 H37            4.8933     6.3584    -0.9125 H       
  38 H38            4.9047     6.3421     0.8770 H       
  39 H39            5.2977    -2.5789     0.8315 H       
  40 H40            5.2820    -2.5706    -0.9484 H       
  41 H41            7.7597    -2.4755    -0.9698 H       
  42 H42            7.7755    -2.4838     0.8101 H       
  43 H43            7.1359    -4.4635    -2.2161 H       
  44 H44            7.0144    -6.9228    -2.2265 H       
  45 H45            6.9730    -8.1625    -0.0993 H       
  46 H46            7.0540    -6.9428     2.0382 H       
  47 H47            7.1803    -4.4837     2.0485 H       
@<TRIPOS>BOND
   1    1    2 ar
   2    1    6 ar
   3    1   28 1
   4    2    3 ar
   5    2   29 1
   6    3    4 ar
   7    3   30 1
   8    4    5 ar
   9    4    7 ar
  10    5    6 ar
  11    5   10 ar
  12    6   31 1
  13    7    8 ar
  14    8    9 ar
  15    8   14 1
  16    9   10 ar
  17    9   11 1
  18   10   13 1
  19   11   12 1
  20   11   32 1
  21   12   13 2
  22   12   15 1
  23   14   20 1
  24   14   33 1
  25   15   16 2
  26   15   19 1
  27   16   17 1
  28   16   34 1
  29   17   18 2
  30   17   35 1
  31   18   19 1
  32   18   36 1
  33   19   37 1
  34   19   38 1
  35   20   21 1
  36   20   39 1
  37   20   40 1
  38   21   22 1
  39   21   41 1
  40   21   42 1
  41   22   23 ar
  42   22   27 ar
  43   23   24 ar
  44   23   43 1
  45   24   25 ar
  46   24   44 1
  47   25   26 ar
  48   25   45 1
  49   26   27 ar
  50   26   46 1
  51   27   47 1

#	End of record

