#	Name: ASD04910311
#	Creating user name:	WinNT
#	Creation time:	15. 06. 2019 20:55

#	Modifying user name:	WinNT
#	Modification time:	15. 06. 2019 20:55

#	Program:	/corina/corina34_cracker 3.40 0067  02.08.2006

@<TRIPOS>MOLECULE
ASD04910311
  58   60    0    0    0
SMALL
NO_CHARGES


@<TRIPOS>ATOM
   1 C1            -0.2690     1.4348     0.2401 C.2     
   2 C2            -0.2087    -0.0706     0.2041 C.3     
   3 C3             1.2521    -0.5211     0.1424 C.3     
   4 O4             0.7517     2.0810     0.2187 O.2     
   5 O5            -1.4569     2.0578     0.2904 O.3     
   6 C6             2.5033    -2.6100     0.0513 C.2     
   7 C7             2.5625    -4.0869     0.0159 C.ar    
   8 C8             3.7958    -4.7377    -0.0422 C.ar    
   9 C9             3.8441    -6.1161    -0.0745 C.ar    
  10 C10            2.6734    -6.8531    -0.0499 C.ar    
  11 C11            1.4475    -6.2141     0.0077 C.ar    
  12 C12            1.3855    -4.8364     0.0463 C.ar    
  13 O13            3.5302    -1.9599     0.0298 O.2     
  14 N14            1.3108    -1.9845     0.1074 N.am    
  15 C15            2.7337    -8.3584    -0.0864 C.3     
  16 C16            2.5542    -8.9105     1.3292 C.3     
  17 C17            2.7394   -10.4292     1.3116 C.3     
  18 C18            2.5600   -10.9813     2.7271 C.3     
  19 O19            1.6915    -8.8566    -0.9276 O.3     
  20 C20            1.9543    -9.9903    -1.6303 C.ar    
  21 C21            3.2166   -10.5633    -1.5754 C.ar    
  22 C22            3.4841   -11.7147    -2.2890 C.ar    
  23 C23            2.4895   -12.2993    -3.0610 C.ar    
  24 C24            1.2265   -11.7259    -3.1154 C.ar    
  25 C25            0.9586   -10.5771    -2.3977 C.ar    
  26 C26            3.8141   -13.6774    -4.6184 C.2     
  27 N27            3.7256   -14.8841    -5.1087 N.2     
  28 C28            2.6309   -15.4844    -4.6179 C.2     
  29 C29            2.0129   -14.6193    -3.7898 C.2     
  30 N30            2.7611   -13.4695    -3.7869 N.pl3   
  31 C31            0.7438   -14.8673    -3.0159 C.3     
  32 Cl32           2.1018   -17.0963    -4.9861 Cl      
  33 H33           -0.6759    -0.4745     1.1022 H       
  34 H34           -0.7386    -0.4345    -0.6762 H       
  35 H35            1.7194    -0.1171    -0.7557 H       
  36 H36            1.7820    -0.1572     1.0227 H       
  37 H37           -1.4450     3.0245     0.3121 H       
  38 H38            4.7104    -4.1636    -0.0622 H       
  39 H39            4.7977    -6.6209    -0.1195 H       
  40 H40            0.5373    -6.7952     0.0267 H       
  41 H41            0.4281    -4.3389     0.0958 H       
  42 H42            0.4914    -2.5033     0.1246 H       
  43 H43            3.7001    -8.6739    -0.4797 H       
  44 H44            3.2952    -8.4618     1.9908 H       
  45 H45            1.5536    -8.6707     1.6886 H       
  46 H46            1.9985   -10.8779     0.6499 H       
  47 H47            3.7401   -10.6690     0.9521 H       
  48 H48            3.3010   -10.5326     3.3888 H       
  49 H49            1.5593   -10.7414     3.0866 H       
  50 H50            2.6919   -12.0632     2.7146 H       
  51 H51            3.9903   -10.1084    -0.9747 H       
  52 H52            4.4669   -12.1603    -2.2467 H       
  53 H53            0.4526   -12.1802    -3.7163 H       
  54 H54           -0.0252   -10.1333    -2.4367 H       
  55 H55            4.5967   -12.9651    -4.8345 H       
  56 H56            0.9893   -15.2875    -2.0405 H       
  57 H57            0.2100   -13.9265    -2.8822 H       
  58 H58            0.1142   -15.5674    -3.5651 H       
@<TRIPOS>BOND
   1    1    2 1
   2    1    4 2
   3    1    5 1
   4    2    3 1
   5    2   33 1
   6    2   34 1
   7    3   14 1
   8    3   35 1
   9    3   36 1
  10    5   37 1
  11    6    7 1
  12    6   13 2
  13    6   14 am
  14    7    8 ar
  15    7   12 ar
  16    8    9 ar
  17    8   38 1
  18    9   10 ar
  19    9   39 1
  20   10   11 ar
  21   10   15 1
  22   11   12 ar
  23   11   40 1
  24   12   41 1
  25   14   42 1
  26   15   16 1
  27   15   19 1
  28   15   43 1
  29   16   17 1
  30   16   44 1
  31   16   45 1
  32   17   18 1
  33   17   46 1
  34   17   47 1
  35   18   48 1
  36   18   49 1
  37   18   50 1
  38   19   20 1
  39   20   21 ar
  40   20   25 ar
  41   21   22 ar
  42   21   51 1
  43   22   23 ar
  44   22   52 1
  45   23   24 ar
  46   23   30 1
  47   24   25 ar
  48   24   53 1
  49   25   54 1
  50   26   27 2
  51   26   30 1
  52   26   55 1
  53   27   28 1
  54   28   29 2
  55   28   32 1
  56   29   30 1
  57   29   31 1
  58   31   56 1
  59   31   57 1
  60   31   58 1

#	End of record

