#	Name: ASD01918558
#	Creating user name:	WinNT
#	Creation time:	15. 06. 2019 20:11

#	Modifying user name:	WinNT
#	Modification time:	15. 06. 2019 20:11

#	Program:	/corina/corina34_cracker 3.40 0067  02.08.2006

@<TRIPOS>MOLECULE
ASD01918558
  49   50    0    0    0
SMALL
NO_CHARGES


@<TRIPOS>ATOM
   1 Cl1            0.0000     0.0000     0.0000 Cl      
   2 H2             0.0000     1.3700     0.0000 H       
   3 C3            11.5319     9.9383    11.9596 C.3     
   4 C4            11.8140     8.4453    11.7802 C.3     
   5 C5            12.4163     7.8816    13.0687 C.3     
   6 C6            10.5076     7.7137    11.4652 C.3     
   7 H7            10.6929     6.6403    11.4251 H       
   8 N8             9.5228     8.0005    12.5112 N.am    
   9 C9             9.5091     7.2686    13.6428 C.2     
  10 O10           10.3143     6.3700    13.7956 O.2     
  11 C11            8.5192     7.5569    14.6942 C.2     
  12 N12            7.6056     8.4881    14.6416 N.2     
  13 C13            6.8225     8.5793    15.6841 C.2     
  14 C14            7.0612     7.7025    16.6721 C.2     
  15 S15            8.3704     6.6968    16.2236 S.3     
  16 C16            9.9779     8.1821    10.1344 C.ar    
  17 C17            9.2943     9.3773    10.0379 C.ar    
  18 N18            8.8253     9.7976     8.8781 N.ar    
  19 C19            8.9898     9.0965     7.7673 C.ar    
  20 N20            8.4786     9.5776     6.5660 N.pl3   
  21 C21            7.8967    10.8475     6.5127 C.ar    
  22 C22            8.3652    11.8744     7.3287 C.ar    
  23 C23            7.7561    13.1155     7.2397 C.ar    
  24 C24            6.7118    13.2930     6.3515 C.ar    
  25 C25            6.0444    14.6403     6.2493 C.3     
  26 N26            6.2916    12.3001     5.5920 N.ar    
  27 C27            6.8461    11.1056     5.6410 C.ar    
  28 C28            9.6703     7.8819     7.7906 C.ar    
  29 Cl29           9.8848     6.9651     6.3321 Cl      
  30 C30           10.1775     7.4182     8.9918 C.ar    
  31 H31           12.4625    10.4595    12.1840 H       
  32 H32           11.1028    10.3399    11.0416 H       
  33 H33           10.8294    10.0792    12.7810 H       
  34 H34           12.5165     8.3044    10.9587 H       
  35 H35           11.7138     8.0225    13.8901 H       
  36 H36           12.6172     6.8179    12.9409 H       
  37 H37           13.3469     8.4028    13.2931 H       
  38 H38            8.8807     8.7172    12.3893 H       
  39 H39            6.0333     9.3139    15.7467 H       
  40 H40            6.5118     7.6393    17.5998 H       
  41 H41            9.1409     9.9763    10.9233 H       
  42 H42            8.5260     9.0319     5.7655 H       
  43 H43            9.1829    11.7072     8.0141 H       
  44 H44            8.0930    13.9348     7.8574 H       
  45 H45            6.5517    15.2407     5.4941 H       
  46 H46            5.0000    14.5080     5.9669 H       
  47 H47            6.0989    15.1468     7.2130 H       
  48 H48            6.4775    10.3183     5.0000 H       
  49 H49           10.7133     6.4817     9.0403 H       
@<TRIPOS>BOND
   1    1    2 1
   2    3    4 1
   3    3   31 1
   4    3   32 1
   5    3   33 1
   6    4    5 1
   7    4    6 1
   8    4   34 1
   9    5   35 1
  10    5   36 1
  11    5   37 1
  12    6    7 1
  13    6    8 1
  14    6   16 1
  15    8    9 am
  16    8   38 1
  17    9   10 2
  18    9   11 1
  19   11   15 1
  20   11   12 2
  21   12   13 1
  22   13   14 2
  23   13   39 1
  24   14   15 1
  25   14   40 1
  26   16   30 ar
  27   16   17 ar
  28   17   18 ar
  29   17   41 1
  30   18   19 ar
  31   19   20 1
  32   19   28 ar
  33   20   21 1
  34   20   42 1
  35   21   27 ar
  36   21   22 ar
  37   22   23 ar
  38   22   43 1
  39   23   24 ar
  40   23   44 1
  41   24   25 1
  42   24   26 ar
  43   25   45 1
  44   25   46 1
  45   25   47 1
  46   26   27 ar
  47   27   48 1
  48   28   29 1
  49   28   30 ar
  50   30   49 1

#	End of record

