#	Name: ASD03930212
#	Creating user name:	WinNT
#	Creation time:	15. 06. 2019 20:47

#	Modifying user name:	WinNT
#	Modification time:	15. 06. 2019 20:47

#	Program:	/corina/corina34_cracker 3.40 0067  02.08.2006

@<TRIPOS>MOLECULE
ASD03930212
  33   35    0    0    0
SMALL
NO_CHARGES


@<TRIPOS>ATOM
   1 S1            -0.0766     4.0289    -0.9978 S.o2    
   2 N2            -0.7570     2.5453    -1.3352 N.am    
   3 C3            -0.4955     1.9157    -2.6259 C.3     
   4 C4             0.9724     1.5771    -2.8363 C.3     
   5 O5             1.7779     2.7612    -2.8745 O.3     
   6 C6             2.3631     3.1142    -1.7020 C.ar    
   7 C7             1.6335     3.6812    -0.6662 C.ar    
   8 C8             3.7225     2.8901    -1.5131 C.ar    
   9 C9             4.3089     3.1897    -0.2997 C.ar    
  10 C10            3.5557     3.7147     0.7401 C.ar    
  11 C11            2.2005     3.9668     0.5478 C.ar    
  12 O12            4.1378     3.9820     1.9394 O.3     
  13 C13            3.3389     4.3930     2.9588 C.ar    
  14 C14            2.7469     3.4595     3.7976 C.ar    
  15 C15            1.9355     3.8799     4.8335 C.ar    
  16 C16            1.7130     5.2297     5.0348 C.ar    
  17 C17            2.3012     6.1620     4.2001 C.ar    
  18 C18            3.1181     5.7471     3.1663 C.ar    
  19 O19           -0.1156     4.7813    -2.2026 O.2     
  20 O20           -0.6489     4.4738     0.2244 O.2     
  21 H21           -1.3208     2.1046    -0.6804 H       
  22 H22           -1.0803     0.9984    -2.6935 H       
  23 H23           -0.8164     2.5926    -3.4177 H       
  24 H24            1.3126     0.9400    -2.0199 H       
  25 H25            1.0834     1.0391    -3.7778 H       
  26 H26            4.3192     2.4814    -2.3152 H       
  27 H27            5.3650     3.0132    -0.1584 H       
  28 H28            1.6031     4.3819     1.3460 H       
  29 H29            2.9202     2.4051     3.6405 H       
  30 H30            1.4743     3.1538     5.4864 H       
  31 H31            1.0782     5.5563     5.8453 H       
  32 H32            2.1252     7.2156     4.3591 H       
  33 H33            3.5811     6.4759     2.5176 H       
@<TRIPOS>BOND
   1    1    2 am
   2    1    7 1
   3    1   19 2
   4    1   20 2
   5    2    3 1
   6    2   21 1
   7    3    4 1
   8    3   22 1
   9    3   23 1
  10    4    5 1
  11    4   24 1
  12    4   25 1
  13    5    6 1
  14    6    7 ar
  15    6    8 ar
  16    7   11 ar
  17    8    9 ar
  18    8   26 1
  19    9   10 ar
  20    9   27 1
  21   10   11 ar
  22   10   12 1
  23   11   28 1
  24   12   13 1
  25   13   14 ar
  26   13   18 ar
  27   14   15 ar
  28   14   29 1
  29   15   16 ar
  30   15   30 1
  31   16   17 ar
  32   16   31 1
  33   17   18 ar
  34   17   32 1
  35   18   33 1

#	End of record

