#	Name: ASD01816795
#	Creating user name:	WinNT
#	Creation time:	15. 06. 2019 19:35

#	Modifying user name:	WinNT
#	Modification time:	15. 06. 2019 19:35

#	Program:	/corina/corina34_cracker 3.40 0067  02.08.2006

@<TRIPOS>MOLECULE
ASD01816795
  50   53    0    0    0
SMALL
NO_CHARGES


@<TRIPOS>ATOM
   1 C1            -0.0168     1.3889     0.0097 C.ar    
   2 C2             0.0021    -0.0041     0.0020 C.ar    
   3 C3             1.1794    -0.6886    -0.0125 C.ar    
   4 C4             2.3934     0.0157    -0.0203 C.ar    
   5 C5             2.3803     1.4351    -0.0131 C.ar    
   6 C6             1.1408     2.1077     0.0025 C.ar    
   7 C7             3.6293    -0.6585    -0.0347 C.ar    
   8 C8             4.7719     0.0878    -0.0413 C.ar    
   9 C9             4.6903     1.4886    -0.0336 C.ar    
  10 N10            3.5280     2.1114    -0.0200 N.ar    
  11 C11            3.6889    -2.1643    -0.0422 C.3     
  12 C12            5.9395     2.2867    -0.0404 C.2     
  13 O13            7.0180     1.7271    -0.0525 O.2     
  14 N14            5.8790     3.6331    -0.0332 N.am    
  15 C15            7.1135     4.4219    -0.0399 C.3     
  16 C16            7.5985     4.5977    -1.4803 C.3     
  17 C17            6.8447     5.7951     0.5789 C.3     
  18 C18            8.1339     6.6189     0.5718 C.3     
  19 C19            8.6190     6.7947    -0.8686 C.3     
  20 C20            8.8878     5.4215    -1.4874 C.3     
  21 O21            6.3916     5.6309     1.9242 O.3     
  22 C22            3.5721    -2.6646    -1.4589 C.ar    
  23 C23            4.7033    -2.8493    -2.2309 C.ar    
  24 C24            2.3286    -2.9507    -2.0019 C.ar    
  25 C25            2.2686    -3.4089    -3.3086 C.ar    
  26 C26            3.4432    -3.5645    -4.0229 C.ar    
  27 N27            4.6097    -3.2871    -3.4714 N.ar    
  28 Cl28           3.3826    -4.1376    -5.6605 Cl      
  29 F29            1.1014     3.4581     0.0092 F       
  30 H30           -0.9642     1.9074     0.0170 H       
  31 H31           -0.9303    -0.5490     0.0080 H       
  32 H32            1.1789    -1.7686    -0.0176 H       
  33 H33            5.7362    -0.3984    -0.0520 H       
  34 H34            4.6379    -2.4924     0.3819 H       
  35 H35            2.8676    -2.5634     0.5529 H       
  36 H36            5.0180     4.0798    -0.0236 H       
  37 H37            7.8779     3.9052     0.5404 H       
  38 H38            7.7900     3.6194    -1.9212 H       
  39 H39            6.8341     5.1144    -2.0606 H       
  40 H40            6.0802     6.3118    -0.0014 H       
  41 H41            7.9424     7.5972     1.0127 H       
  42 H42            8.8984     6.1022     1.1521 H       
  43 H43            7.8545     7.3113    -1.4489 H       
  44 H44            9.5375     7.3816    -0.8736 H       
  45 H45            9.6523     4.9048    -0.9071 H       
  46 H46            9.2333     5.5467    -2.5135 H       
  47 H47            6.2013     6.4626     2.3794 H       
  48 H48            5.6754    -2.6321    -1.8136 H       
  49 H49            1.4282    -2.8199    -1.4201 H       
  50 H50            1.3171    -3.6419    -3.7633 H       
@<TRIPOS>BOND
   1    1    2 ar
   2    1    6 ar
   3    1   30 1
   4    2    3 ar
   5    2   31 1
   6    3    4 ar
   7    3   32 1
   8    4    5 ar
   9    4    7 ar
  10    5    6 ar
  11    5   10 ar
  12    6   29 1
  13    7    8 ar
  14    7   11 1
  15    8    9 ar
  16    8   33 1
  17    9   10 ar
  18    9   12 1
  19   11   22 1
  20   11   34 1
  21   11   35 1
  22   12   13 2
  23   12   14 am
  24   14   15 1
  25   14   36 1
  26   15   16 1
  27   15   17 1
  28   15   37 1
  29   16   20 1
  30   16   38 1
  31   16   39 1
  32   17   18 1
  33   17   21 1
  34   17   40 1
  35   18   19 1
  36   18   41 1
  37   18   42 1
  38   19   20 1
  39   19   43 1
  40   19   44 1
  41   20   45 1
  42   20   46 1
  43   21   47 1
  44   22   23 ar
  45   22   24 ar
  46   23   27 ar
  47   23   48 1
  48   24   25 ar
  49   24   49 1
  50   25   26 ar
  51   25   50 1
  52   26   27 ar
  53   26   28 1

#	End of record

