#	Name: ASD01884207
#	Creating user name:	WinNT
#	Creation time:	15. 06. 2019 19:47

#	Modifying user name:	WinNT
#	Modification time:	15. 06. 2019 19:47

#	Program:	/corina/corina34_cracker 3.40 0067  02.08.2006

@<TRIPOS>MOLECULE
ASD01884207
  35   38    0    0    0
SMALL
NO_CHARGES


@<TRIPOS>ATOM
   1 S1            -0.0219     1.7672     0.0118 S.3     
   2 C2             0.0021    -0.0041     0.0020 C.2     
   3 N3             1.2906    -0.3578    -0.0122 N.am    
   4 C4             2.2519     0.6366    -0.0160 C.ar    
   5 C5             1.7391     1.9357    -0.0042 C.ar    
   6 C6             2.5665     3.0415    -0.0061 C.ar    
   7 C7             3.9491     2.8721    -0.0202 C.ar    
   8 C8             4.4761     1.5804    -0.0322 C.ar    
   9 C9             3.6480     0.4855    -0.0306 C.ar    
  10 O10           -0.9608    -0.7487     0.0076 O.2     
  11 C11            4.8500     4.0507    -0.0230 C.ar    
  12 C12            6.7338     5.2303     0.8841 C.ar    
  13 C13            6.5318     6.2517    -0.0271 C.ar    
  14 C14            5.4900     6.1814    -0.9333 C.ar    
  15 C15            4.6467     5.0856    -0.9366 C.ar    
  16 C16            1.6774    -1.7707    -0.0230 C.3     
  17 C17            1.7987    -2.2553    -1.4692 C.3     
  18 C18            2.3095    -3.6795    -1.6966 C.3     
  19 C19            0.8340    -3.3493    -1.9309 C.3     
  20 F20            3.1072    -3.9074    -2.8230 F       
  21 F21            2.6298    -4.4390    -0.5662 F       
  22 C22            5.8990     4.1315     0.8906 C.ar    
  23 F23            3.6290     5.0169    -1.8225 F       
  24 H24            2.1428     4.0348     0.0029 H       
  25 H25            5.5470     1.4404    -0.0435 H       
  26 H26            4.0762    -0.5060    -0.0397 H       
  27 H27            7.5497     5.2910     1.5891 H       
  28 H28            7.1882     7.1094    -0.0277 H       
  29 H29            5.3368     6.9819    -1.6420 H       
  30 H30            2.6364    -1.8888     0.4814 H       
  31 H31            0.9197    -2.3588     0.4949 H       
  32 H32            2.0846    -1.4959    -2.1970 H       
  33 H33            0.1129    -3.7240    -1.2044 H       
  34 H34            0.4849    -3.3098    -2.9627 H       
  35 H35            6.0583     3.3355     1.6029 H       
@<TRIPOS>BOND
   1    1    2 1
   2    1    5 1
   3    2    3 am
   4    2   10 2
   5    3    4 1
   6    3   16 1
   7    4    5 ar
   8    4    9 ar
   9    5    6 ar
  10    6    7 ar
  11    6   24 1
  12    7    8 ar
  13    7   11 1
  14    8    9 ar
  15    8   25 1
  16    9   26 1
  17   11   22 ar
  18   11   15 ar
  19   12   13 ar
  20   12   22 ar
  21   12   27 1
  22   13   14 ar
  23   13   28 1
  24   14   15 ar
  25   14   29 1
  26   15   23 1
  27   16   17 1
  28   16   30 1
  29   16   31 1
  30   17   18 1
  31   17   19 1
  32   17   32 1
  33   18   19 1
  34   18   20 1
  35   18   21 1
  36   19   33 1
  37   19   34 1
  38   22   35 1

#	End of record

