#	Name: ASD03910132
#	Creating user name:	WinNT
#	Creation time:	15. 06. 2019 20:47

#	Modifying user name:	WinNT
#	Modification time:	15. 06. 2019 20:47

#	Program:	/corina/corina34_cracker 3.40 0067  02.08.2006

@<TRIPOS>MOLECULE
ASD03910132
  45   47    0    0    0
SMALL
NO_CHARGES


@<TRIPOS>ATOM
   1 C1             0.0233     1.4106     0.0730 C.ar    
   2 N2            -0.0681     0.0969     0.0301 N.ar    
   3 C3             1.0109    -0.6734    -0.0463 C.ar    
   4 C4             2.2851    -0.1061    -0.0831 C.ar    
   5 C5             2.4089     1.2710    -0.0394 C.ar    
   6 C6             1.2546     2.0383     0.0398 C.ar    
   7 C7             0.8608    -2.1440    -0.0922 C.2     
   8 N8             0.1604    -2.8562    -1.0203 N.pl3   
   9 N9             0.2782    -4.2133    -0.6936 N.2     
  10 C10            1.0157    -4.3193     0.3827 C.2     
  11 C11            1.4032    -3.0412     0.7844 C.2     
  12 C12           -0.5818    -2.3018    -2.1551 C.3     
  13 C13            0.0674    -2.7608    -3.4623 C.3     
  14 C14           -2.0303    -2.7919    -2.1055 C.3     
  15 C15            3.5090    -0.9812    -0.1688 C.3     
  16 O16            4.6697    -0.1626    -0.3257 O.3     
  17 C17            5.8506    -0.7998    -0.5205 C.ar    
  18 C18            5.9264    -2.1896    -0.4464 C.ar    
  19 C19            7.1526    -2.7943    -0.6523 C.ar    
  20 C20            8.2652    -2.0087    -0.9248 C.ar    
  21 N21            8.1724    -0.7009    -0.9903 N.ar    
  22 C22            7.0142    -0.0724    -0.8055 C.ar    
  23 C23            6.9559     1.3950    -0.8950 C.2     
  24 O24            7.9606     2.0278    -1.1413 O.2     
  25 C25            9.6014    -2.6688    -1.1485 C.3     
  26 H26           -0.8763     2.0054     0.1304 H       
  27 H27            3.3819     1.7388    -0.0663 H       
  28 H28            1.3180     3.1159     0.0751 H       
  29 H29            1.2827    -5.2426     0.8752 H       
  30 H30            2.0207    -2.8028     1.6377 H       
  31 H31           -0.5646    -1.2131    -2.1036 H       
  32 H32           -0.0281    -3.8426    -3.5552 H       
  33 H33           -0.4299    -2.2785    -4.3039 H       
  34 H34            1.1228    -2.4882    -3.4591 H       
  35 H35           -2.0475    -3.8805    -2.1571 H       
  36 H36           -2.4928    -2.4649    -1.1743 H       
  37 H37           -2.5826    -2.3794    -2.9499 H       
  38 H38            3.5998    -1.5693     0.7444 H       
  39 H39            3.4180    -1.6504    -1.0244 H       
  40 H40            5.0479    -2.7803    -0.2327 H       
  41 H41            7.2446    -3.8691    -0.6012 H       
  42 H42            6.0184     1.9086    -0.7412 H       
  43 H43            9.7230    -2.8929    -2.2083 H       
  44 H44           10.3970    -1.9974    -0.8255 H       
  45 H45            9.6506    -3.5936    -0.5737 H       
@<TRIPOS>BOND
   1    1    2 ar
   2    1    6 ar
   3    1   26 1
   4    2    3 ar
   5    3    4 ar
   6    3    7 1
   7    4    5 ar
   8    4   15 1
   9    5    6 ar
  10    5   27 1
  11    6   28 1
  12    7    8 1
  13    7   11 2
  14    8    9 1
  15    8   12 1
  16    9   10 2
  17   10   11 1
  18   10   29 1
  19   11   30 1
  20   12   13 1
  21   12   14 1
  22   12   31 1
  23   13   32 1
  24   13   33 1
  25   13   34 1
  26   14   35 1
  27   14   36 1
  28   14   37 1
  29   15   16 1
  30   15   38 1
  31   15   39 1
  32   16   17 1
  33   17   18 ar
  34   17   22 ar
  35   18   19 ar
  36   18   40 1
  37   19   20 ar
  38   19   41 1
  39   20   21 ar
  40   20   25 1
  41   21   22 ar
  42   22   23 1
  43   23   24 2
  44   23   42 1
  45   25   43 1
  46   25   44 1
  47   25   45 1

#	End of record

