#	Name: ASD05430108
#	Creating user name:	WinNT
#	Creation time:	15. 06. 2019 20:59

#	Modifying user name:	WinNT
#	Modification time:	15. 06. 2019 20:59

#	Program:	/corina/corina34_cracker 3.40 0067  02.08.2006

@<TRIPOS>MOLECULE
ASD05430108
  68   74    0    0    0
SMALL
NO_CHARGES


@<TRIPOS>ATOM
   1 F1             7.5051     6.9304    -3.9664 F       
   2 C2             0.1926     1.1486    -1.0773 C.ar    
   3 C3             0.0190    -0.0153    -0.3189 C.ar    
   4 C4             1.0288    -0.4670     0.5175 C.ar    
   5 C5             2.2174     0.2236     0.6140 C.ar    
   6 C6             2.4025     1.3911    -0.1359 C.ar    
   7 C7             1.3841     1.8445    -0.9729 C.ar    
   8 C8             4.8916    -0.0276    -0.1197 C.3     
   9 C9             4.8375     1.4731     0.0358 C.2     
  10 C10            3.6675     2.1373    -0.0405 C.2     
  11 C11            6.3131    -0.4892    -0.4539 C.3     
  12 C12            7.0510     0.5592    -1.2965 C.3     
  13 N13            7.1907     1.7876    -0.5149 N.pl3   
  14 C14            6.1006     2.1881     0.2736 C.2     
  15 C15            8.1815     3.7809    -1.4767 C.ar    
  16 C16            9.2686     4.3854    -2.0788 C.ar    
  17 C17            9.0594     5.4594    -2.9301 C.ar    
  18 C18            7.7563     5.8875    -3.1451 C.ar    
  19 C19            6.7177     5.2315    -2.5062 C.ar    
  20 N20            6.9565     4.2135    -1.7033 N.ar    
  21 N21           -1.1847    -0.7293    -0.4053 N.pl3   
  22 C22           -1.3194    -2.0763    -0.6212 C.2     
  23 C23           -2.6402    -2.3396    -0.6313 C.2     
  24 N24           -3.2981    -1.1887    -0.4277 N.2     
  25 C25           -2.4371    -0.2179    -0.2850 C.2     
  26 C26           -3.2700    -3.6933    -0.8361 C.3     
  27 C27            1.2752     3.0558    -1.8785 C.3     
  28 C28           -0.2459     3.1124    -2.1550 C.3     
  29 O29           -0.6535     1.7471    -1.9614 O.3     
  30 C30            8.3982     2.6088    -0.5546 C.3     
  31 C31            8.6982     3.1170     0.8604 C.3     
  32 N32            7.4782     3.6735     1.4499 N.pl3   
  33 N33            6.2267     3.1096     1.1724 N.2     
  34 C34            7.0856    -0.6805     0.8656 C.3     
  35 S35            7.6492    -2.4228     0.8562 S.o2    
  36 C36            7.4924    -2.6430    -0.9619 C.3     
  37 C37            6.2306    -1.7935    -1.2583 C.3     
  38 O38            9.0195    -2.4829     1.2275 O.2     
  39 O39            6.6922    -3.2373     1.5196 O.2     
  40 H40            0.8825    -1.3661     1.0976 H       
  41 H41            3.0017    -0.1338     1.2649 H       
  42 H42            4.5717    -0.4963     0.8109 H       
  43 H43            4.2185    -0.3295    -0.9222 H       
  44 H44            3.6580     3.2173    -0.0318 H       
  45 H45            8.0384     0.1829    -1.5639 H       
  46 H46            6.4808     0.7662    -2.2022 H       
  47 H47           10.2690     4.0259    -1.8881 H       
  48 H48            9.8901     5.9514    -3.4141 H       
  49 H49            5.7007     5.5576    -2.6671 H       
  50 H50           -0.5199    -2.7894    -0.7576 H       
  51 H51           -2.6802     0.8195    -0.1086 H       
  52 H52           -3.3967    -4.1847     0.1286 H       
  53 H53           -4.2426    -3.5731    -1.3132 H       
  54 H54           -2.6261    -4.3012    -1.4717 H       
  55 H55            1.6118     3.9569    -1.3659 H       
  56 H56            1.8336     2.9031    -2.8021 H       
  57 H57           -0.7442     3.7692    -1.4420 H       
  58 H58           -0.4410     3.4324    -3.1785 H       
  59 H59            9.2355     2.0099    -0.9127 H       
  60 H60            9.0542     2.2904     1.4753 H       
  61 H61            9.4645     3.8908     0.8135 H       
  62 H62            7.5378     4.4416     2.0392 H       
  63 H63            7.9422    -0.0074     0.9019 H       
  64 H64            6.4283    -0.5015     1.7165 H       
  65 H65            8.3640    -2.2453    -1.4817 H       
  66 H66            7.3293    -3.6900    -1.2176 H       
  67 H67            5.3388    -2.3481    -0.9663 H       
  68 H68            6.1849    -1.5649    -2.3231 H       
@<TRIPOS>BOND
   1    1   18 1
   2    2    3 ar
   3    2    7 ar
   4    2   29 1
   5    3    4 ar
   6    3   21 1
   7    4    5 ar
   8    4   40 1
   9    5    6 ar
  10    5   41 1
  11    6    7 ar
  12    6   10 1
  13    7   27 1
  14    8    9 1
  15    8   11 1
  16    8   42 1
  17    8   43 1
  18    9   10 2
  19    9   14 1
  20   10   44 1
  21   11   12 1
  22   11   34 1
  23   11   37 1
  24   12   13 1
  25   12   45 1
  26   12   46 1
  27   13   14 1
  28   13   30 1
  29   14   33 2
  30   15   16 ar
  31   15   20 ar
  32   15   30 1
  33   16   17 ar
  34   16   47 1
  35   17   18 ar
  36   17   48 1
  37   18   19 ar
  38   19   20 ar
  39   19   49 1
  40   21   22 1
  41   21   25 1
  42   22   23 2
  43   22   50 1
  44   23   24 1
  45   23   26 1
  46   24   25 2
  47   25   51 1
  48   26   52 1
  49   26   53 1
  50   26   54 1
  51   27   28 1
  52   27   55 1
  53   27   56 1
  54   28   29 1
  55   28   57 1
  56   28   58 1
  57   30   31 1
  58   30   59 1
  59   31   32 1
  60   31   60 1
  61   31   61 1
  62   32   33 1
  63   32   62 1
  64   34   35 1
  65   34   63 1
  66   34   64 1
  67   35   36 1
  68   35   38 2
  69   35   39 2
  70   36   37 1
  71   36   65 1
  72   36   66 1
  73   37   67 1
  74   37   68 1

#	End of record

