#	Name: ASD05430548
#	Creating user name:	WinNT
#	Creation time:	15. 06. 2019 21:00

#	Modifying user name:	WinNT
#	Modification time:	15. 06. 2019 21:00

#	Program:	/corina/corina34_cracker 3.40 0067  02.08.2006

@<TRIPOS>MOLECULE
ASD05430548
  44   44    0    0    0
SMALL
NO_CHARGES


@<TRIPOS>ATOM
   1 C1            -0.0179     1.4674     0.0101 C.3     
   2 N2             0.0021    -0.0041     0.0020 N.3     
   3 C3             0.4378    -0.4985    -1.3079 C.3     
   4 C4             1.7395     0.1449    -1.7082 C.ar    
   5 C5             2.1983     1.2955    -1.1038 C.ar    
   6 C6             1.4253     1.9721    -0.0010 C.3     
   7 C7             2.4867    -0.4478    -2.7157 C.ar    
   8 C8             3.6839     0.1094    -3.1167 C.ar    
   9 C9             4.1425     1.2650    -2.5116 C.ar    
  10 C10            3.4008     1.8554    -1.5084 C.ar    
  11 C11           -1.3138    -0.5504     0.3599 C.3     
  12 C12           -1.2887    -2.0738     0.2200 C.3     
  13 C13           -1.6451    -0.1764     1.8060 C.3     
  14 H14           -0.5400     1.8315    -0.8748 H       
  15 H15           -0.5229     1.8219     0.9086 H       
  16 H16            0.5709    -1.5792    -1.2583 H       
  17 H17           -0.3232    -0.2641    -2.0522 H       
  18 H18            1.4304     3.0499    -0.1640 H       
  19 H19            1.8938     1.7505     0.9579 H       
  20 H20            2.1293    -1.3503    -3.1892 H       
  21 H21            4.2617    -0.3564    -3.9013 H       
  22 H22            5.0784     1.7046    -2.8234 H       
  23 H23            3.7589     2.7582    -1.0359 H       
  24 H24           -2.0719    -0.1369    -0.3052 H       
  25 H25           -2.2650    -2.4791     0.4855 H       
  26 H26           -1.0527    -2.3402    -0.8103 H       
  27 H27           -0.5305    -2.4873     0.8850 H       
  28 H28           -1.6629     0.9089     1.9057 H       
  29 H29           -2.6214    -0.5818     2.0716 H       
  30 H30           -0.8869    -0.5899     2.4711 H       
  31 C31           11.0803    11.1764     9.6213 C.3     
  32 C32           11.1010     9.6466     9.6129 C.3     
  33 C33           11.8171     9.1532     8.3541 C.3     
  34 C34           11.8410     9.1397    10.8524 C.3     
  35 H35           12.1028    11.5537     9.6136 H       
  36 H36           10.5531    11.5375     8.7383 H       
  37 H37           10.5701    11.5279    10.5181 H       
  38 H38           10.0784     9.2693     9.6207 H       
  39 H39           12.8397     9.5304     8.3464 H       
  40 H40           11.8319     8.0633     8.3481 H       
  41 H41           11.2900     9.5142     7.4711 H       
  42 H42           11.3308     9.4913    11.7492 H       
  43 H43           11.8558     8.0499    10.8465 H       
  44 H44           12.8636     9.5170    10.8447 H       
@<TRIPOS>BOND
   1    1    2 1
   2    1    6 1
   3    1   14 1
   4    1   15 1
   5    2    3 1
   6    2   11 1
   7    3    4 1
   8    3   16 1
   9    3   17 1
  10    4    5 ar
  11    4    7 ar
  12    5    6 1
  13    5   10 ar
  14    6   18 1
  15    6   19 1
  16    7    8 ar
  17    7   20 1
  18    8    9 ar
  19    8   21 1
  20    9   10 ar
  21    9   22 1
  22   10   23 1
  23   11   12 1
  24   11   13 1
  25   11   24 1
  26   12   25 1
  27   12   26 1
  28   12   27 1
  29   13   28 1
  30   13   29 1
  31   13   30 1
  32   31   32 1
  33   31   35 1
  34   31   36 1
  35   31   37 1
  36   32   33 1
  37   32   34 1
  38   32   38 1
  39   33   39 1
  40   33   40 1
  41   33   41 1
  42   34   42 1
  43   34   43 1
  44   34   44 1

#	End of record

