#	Name: ASD01320043
#	Creating user name:	WinNT
#	Creation time:	15. 06. 2019 19:15

#	Modifying user name:	WinNT
#	Modification time:	15. 06. 2019 19:15

#	Program:	/corina/corina34_cracker 3.40 0067  02.08.2006

@<TRIPOS>MOLECULE
ASD01320043
  44   45    0    0    0
SMALL
NO_CHARGES


@<TRIPOS>ATOM
   1 C1            -0.0178     1.4608     0.0101 C.3     
   2 N2             0.0021    -0.0041     0.0020 N.am    
   3 S3            -2.0137     0.1413     1.7254 S.2     
   4 C4             1.4184     1.9909     0.0057 C.3     
   5 N5            -0.8573    -2.0417     0.7496 N.am    
   6 O6             2.1225     1.4718     1.1357 O.3     
   7 C7             2.1160     1.5425    -1.2822 C.3     
   8 N8             0.0740    -2.7253    -0.0429 N.2     
   9 O9             2.1917     0.1159    -1.3131 O.3     
  10 C10            1.3094     2.0390    -2.4861 C.3     
  11 N11            3.8973    -6.8160    -3.2884 N.pl3   
  12 O12            1.9112     1.5650    -3.6924 O.3     
  13 C13           -0.1226     1.5070    -2.3855 C.3     
  14 O14           -0.7025     1.9345    -1.1513 O.3     
  15 C15           -0.9509     2.0477    -3.5527 C.3     
  16 O16           -2.2533     1.4602    -3.5250 O.3     
  17 C17           -0.8756    -0.6941     0.7570 C.2     
  18 O18            3.9141    -8.0339    -3.2948 O.2     
  19 C19            0.0916    -4.0228    -0.0501 C.2     
  20 O20            4.6905    -6.1924    -3.9707 O.2     
  21 C21            1.0721    -4.7424    -0.8843 C.ar    
  22 C22            1.0939    -6.1390    -0.8945 C.ar    
  23 C23            2.0133    -6.8054    -1.6775 C.ar    
  24 C24            2.9129    -6.0937    -2.4514 C.ar    
  25 C25            2.8971    -4.7101    -2.4462 C.ar    
  26 C26            1.9794    -4.0305    -1.6725 C.ar    
  27 H27           -0.5323     1.8124     0.9043 H       
  28 H28            0.6469    -0.4774    -0.5467 H       
  29 H29            1.4049     3.0797     0.0537 H       
  30 H30           -1.4890    -2.5383     1.2930 H       
  31 H31            1.7324     1.7130     1.9870 H       
  32 H32            3.1214     1.9619    -1.3173 H       
  33 H33            2.6838    -0.2679    -0.5744 H       
  34 H34            1.2946     3.1289    -2.4902 H       
  35 H35            2.8233     1.8602    -3.8193 H       
  36 H36           -0.1092     0.4178    -2.4228 H       
  37 H37           -1.0389     3.1306    -3.4651 H       
  38 H38           -0.4597     1.7980    -4.4932 H       
  39 H39           -2.8344     1.7580    -4.2382 H       
  40 H40           -0.6117    -4.5757     0.5549 H       
  41 H41            0.3928    -6.6958    -0.2904 H       
  42 H42            2.0314    -7.8852    -1.6864 H       
  43 H43            3.6021    -4.1610    -3.0527 H       
  44 H44            1.9652    -2.9506    -1.6729 H       
@<TRIPOS>BOND
   1    1    2 1
   2    1    4 1
   3    1   14 1
   4    1   27 1
   5    2   17 am
   6    2   28 1
   7    3   17 2
   8    4    6 1
   9    4    7 1
  10    4   29 1
  11    5    8 1
  12    5   17 am
  13    5   30 1
  14    6   31 1
  15    7    9 1
  16    7   10 1
  17    7   32 1
  18    8   19 2
  19    9   33 1
  20   10   12 1
  21   10   13 1
  22   10   34 1
  23   11   18 2
  24   11   20 2
  25   11   24 1
  26   12   35 1
  27   13   14 1
  28   13   15 1
  29   13   36 1
  30   15   16 1
  31   15   37 1
  32   15   38 1
  33   16   39 1
  34   19   21 1
  35   19   40 1
  36   21   22 ar
  37   21   26 ar
  38   22   23 ar
  39   22   41 1
  40   23   24 ar
  41   23   42 1
  42   24   25 ar
  43   25   26 ar
  44   25   43 1
  45   26   44 1

#	End of record

