#	Name: ASD03091919
#	Creating user name:	WinNT
#	Creation time:	15. 06. 2019 20:31

#	Modifying user name:	WinNT
#	Modification time:	15. 06. 2019 20:31

#	Program:	/corina/corina34_cracker 3.40 0067  02.08.2006

@<TRIPOS>MOLECULE
ASD03091919
  46   47    0    0    0
SMALL
NO_CHARGES


@<TRIPOS>ATOM
   1 C1            -0.0184     1.5028     0.0103 C.2     
   2 N2             1.3897    -0.4735    -0.0138 N.am    
   3 C3             0.0021    -0.0041     0.0020 C.3     
   4 C4            -0.7002    -0.5305     1.2552 C.3     
   5 C5            -0.7886    -2.0334     1.1876 C.2     
   6 C6            -1.8280    -2.7527     0.7356 C.2     
   7 N7            -1.5459    -4.0885     0.8274 N.pl3   
   8 C8            -0.2861    -4.2657     1.3540 C.ar    
   9 C9             0.4778    -5.3896     1.6524 C.ar    
  10 C10            1.7387    -5.2377     2.1857 C.ar    
  11 C11            2.2570    -3.9730     2.4293 C.ar    
  12 C12            1.5241    -2.8559     2.1438 C.ar    
  13 C13            0.2460    -2.9864     1.5968 C.ar    
  14 O14            1.0197     2.1211     0.0037 O.2     
  15 O15           -1.1898     2.1580     0.0194 O.3     
  16 C16            2.0495    -0.5869    -1.1835 C.2     
  17 N17            3.8131    -1.5591    -2.5434 N.3     
  18 C18            3.4770    -1.0698    -1.1997 C.3     
  19 C19            4.4102     0.0846    -0.8291 C.3     
  20 C20            5.8594    -0.4057    -0.8455 C.3     
  21 C21            6.8001     0.7751    -0.5977 C.3     
  22 C22            4.0601     0.5942     0.5705 C.3     
  23 O23            1.4945    -0.3002    -2.2230 O.2     
  24 H24            1.8336    -0.7028     0.8177 H       
  25 H25           -0.5153    -0.3696    -0.8850 H       
  26 H26           -0.1328    -0.2393     2.1391 H       
  27 H27           -1.7041    -0.1098     1.3130 H       
  28 H28           -2.7502    -2.3384     0.3559 H       
  29 H29           -2.1445    -4.8039     0.5615 H       
  30 H30            0.0834    -6.3777     1.4668 H       
  31 H31            2.3301    -6.1114     2.4170 H       
  32 H32            3.2472    -3.8714     2.8482 H       
  33 H33            1.9336    -1.8752     2.3363 H       
  34 H34           -1.1523     3.1243     0.0245 H       
  35 H35            3.2539    -2.3632    -2.7858 H       
  36 H36            3.7113    -0.8274    -3.2306 H       
  37 H37            3.5951    -1.8785    -0.4785 H       
  38 H38            4.2920     0.8932    -1.5503 H       
  39 H39            5.9993    -1.1521    -0.0636 H       
  40 H40            6.0817    -0.8499    -1.8158 H       
  41 H41            6.6602     1.5215    -1.3796 H       
  42 H42            6.5779     1.2193     0.3726 H       
  43 H43            7.8326     0.4258    -0.6094 H       
  44 H44            4.7249     1.4166     0.8345 H       
  45 H45            3.0276     0.9435     0.5822 H       
  46 H46            4.1782    -0.2145     1.2917 H       
@<TRIPOS>BOND
   1    1    3 1
   2    1   14 2
   3    1   15 1
   4    2    3 1
   5    2   16 am
   6    2   24 1
   7    3    4 1
   8    3   25 1
   9    4    5 1
  10    4   26 1
  11    4   27 1
  12    5    6 2
  13    5   13 1
  14    6    7 1
  15    6   28 1
  16    7    8 1
  17    7   29 1
  18    8    9 ar
  19    8   13 ar
  20    9   10 ar
  21    9   30 1
  22   10   11 ar
  23   10   31 1
  24   11   12 ar
  25   11   32 1
  26   12   13 ar
  27   12   33 1
  28   15   34 1
  29   16   18 1
  30   16   23 2
  31   17   18 1
  32   17   35 1
  33   17   36 1
  34   18   19 1
  35   18   37 1
  36   19   20 1
  37   19   22 1
  38   19   38 1
  39   20   21 1
  40   20   39 1
  41   20   40 1
  42   21   41 1
  43   21   42 1
  44   21   43 1
  45   22   44 1
  46   22   45 1
  47   22   46 1

#	End of record

