#	Name: ASD00170357
#	Creating user name:	WinNT
#	Creation time:	15. 06. 2019 18:32

#	Modifying user name:	WinNT
#	Modification time:	15. 06. 2019 18:32

#	Program:	/corina/corina34_cracker 3.40 0067  02.08.2006

@<TRIPOS>MOLECULE
ASD00170357
  28   30    0    0    0
SMALL
NO_CHARGES


@<TRIPOS>ATOM
   1 C1            -0.0287     1.3407    -0.1427 C.2     
   2 C2            -0.0022     0.0067    -0.1763 C.2     
   3 C3            -1.3194    -0.6038     0.0007 C.2     
   4 C4            -2.3146     0.3173     0.1774 C.2     
   5 S5            -1.6932     1.8963     0.1254 S.3     
   6 C6            -1.5482    -2.0469    -0.0104 C.2     
   7 C7            -1.7734    -2.7504    -1.2925 C.ar    
   8 O8            -1.5536    -2.6707     1.0354 O.2     
   9 C9            -1.8856    -4.1412    -1.3184 C.ar    
  10 C10           -2.0955    -4.7910    -2.5171 C.ar    
  11 C11           -2.1947    -4.0669    -3.6920 C.ar    
  12 C12           -2.0843    -2.6878    -3.6731 C.ar    
  13 C13           -1.8801    -2.0254    -2.4802 C.ar    
  14 N14           -3.6457     0.0054     0.3683 N.pl3   
  15 C15            1.3120     2.0366    -0.3390 C.3     
  16 C16            2.4672     1.0726    -0.0141 C.3     
  17 S17            1.6821    -0.5308    -0.4232 S.3     
  18 H18           -1.8080    -4.7076    -0.4021 H       
  19 H19           -2.1821    -5.8673    -2.5386 H       
  20 H20           -2.3586    -4.5804    -4.6278 H       
  21 H21           -2.1627    -2.1283    -4.5935 H       
  22 H22           -1.7945    -0.9489    -2.4668 H       
  23 H23           -3.9417    -0.9162     0.3060 H       
  24 H24           -4.2851     0.7079     0.5648 H       
  25 H25            1.3985     2.3671    -1.3741 H       
  26 H26            1.3687     2.9026     0.3205 H       
  27 H27            3.3313     1.2630    -0.6506 H       
  28 H28            2.7379     1.1220     1.0406 H       
@<TRIPOS>BOND
   1    1    2 2
   2    1   15 1
   3    1    5 1
   4    2    3 1
   5    2   17 1
   6    3    4 2
   7    3    6 1
   8    4    5 1
   9    4   14 1
  10    6    7 1
  11    6    8 2
  12    7    9 ar
  13    7   13 ar
  14    9   10 ar
  15    9   18 1
  16   10   11 ar
  17   10   19 1
  18   11   12 ar
  19   11   20 1
  20   12   13 ar
  21   12   21 1
  22   13   22 1
  23   14   23 1
  24   14   24 1
  25   15   16 1
  26   15   25 1
  27   15   26 1
  28   16   17 1
  29   16   27 1
  30   16   28 1

#	End of record

