#	Name: ASD01914366
#	Creating user name:	WinNT
#	Creation time:	15. 06. 2019 20:03

#	Modifying user name:	WinNT
#	Modification time:	15. 06. 2019 20:03

#	Program:	/corina/corina34_cracker 3.40 0067  02.08.2006

@<TRIPOS>MOLECULE
ASD01914366
  43   46    0    0    0
SMALL
NO_CHARGES


@<TRIPOS>ATOM
   1 C1            -0.0166     1.3723     0.0096 C.ar    
   2 C2             0.0021    -0.0041     0.0020 C.ar    
   3 C3            -1.2558    -0.8337    -0.0113 C.3     
   4 C4            -2.4498    -0.0187     0.4826 C.3     
   5 N5            -2.4350     1.2777    -0.2151 N.am    
   6 C6            -1.2964     2.1669     0.0412 C.3     
   7 C7            -3.4270     1.6331    -1.0555 C.2     
   8 C8            -3.3810     2.9678    -1.7537 C.3     
   9 O9            -4.3566     0.8788    -1.2497 O.2     
  10 C10            1.1861     2.0703     0.0019 C.ar    
  11 C11            2.3725     1.3561    -0.0047 C.ar    
  12 C12            2.3181    -0.0248    -0.0026 C.ar    
  13 N13            1.1614    -0.6506     0.0009 N.ar    
  14 C14            3.6988     2.0717    -0.0143 C.3     
  15 O15            4.1267     2.2999     1.3299 O.3     
  16 C16            5.3135     2.9399     1.4993 C.ar    
  17 C17            5.7892     3.1941     2.7772 C.ar    
  18 C18            6.0536     3.3347     0.3943 C.ar    
  19 C19            7.2604     3.9850     0.5677 C.ar    
  20 C20            7.7319     4.2424     1.8411 C.ar    
  21 C21            6.9979     3.8454     2.9468 C.ar    
  22 F22            7.4604     4.0979     4.1907 F       
  23 C23           -4.5367     3.3127    -2.6951 C.3     
  24 C24           -4.4162     4.0165    -1.3420 C.3     
  25 H25           -1.4500    -1.1740    -1.0284 H       
  26 H26           -1.1207    -1.7001     0.6362 H       
  27 H27           -3.3757    -0.5479     0.2572 H       
  28 H28           -2.3679     0.1406     1.5578 H       
  29 H29           -1.4115     2.6306     1.0209 H       
  30 H30           -1.2615     2.9417    -0.7247 H       
  31 H31           -2.3868     3.3216    -2.0267 H       
  32 H32            1.1948     3.1503     0.0006 H       
  33 H33            3.2348    -0.5959    -0.0043 H       
  34 H34            4.4378     1.4601    -0.5320 H       
  35 H35            3.5926     3.0266    -0.5290 H       
  36 H36            5.2164     2.8843     3.6389 H       
  37 H37            5.6867     3.1336    -0.6013 H       
  38 H38            7.8361     4.2921    -0.2929 H       
  39 H39            8.6757     4.7501     1.9744 H       
  40 H40           -4.3029     3.8938    -3.5872 H       
  41 H41           -5.3303     2.5743    -2.8094 H       
  42 H42           -5.1304     3.7411    -0.5660 H       
  43 H43           -4.1031     5.0605    -1.3438 H       
@<TRIPOS>BOND
   1    1    2 ar
   2    1   10 ar
   3    1    6 1
   4    2    3 1
   5    2   13 ar
   6    3    4 1
   7    3   25 1
   8    3   26 1
   9    4    5 1
  10    4   27 1
  11    4   28 1
  12    5    6 1
  13    5    7 am
  14    6   29 1
  15    6   30 1
  16    7    8 1
  17    7    9 2
  18    8   23 1
  19    8   24 1
  20    8   31 1
  21   10   11 ar
  22   10   32 1
  23   11   12 ar
  24   11   14 1
  25   12   13 ar
  26   12   33 1
  27   14   15 1
  28   14   34 1
  29   14   35 1
  30   15   16 1
  31   16   17 ar
  32   16   18 ar
  33   17   21 ar
  34   17   36 1
  35   18   19 ar
  36   18   37 1
  37   19   20 ar
  38   19   38 1
  39   20   21 ar
  40   20   39 1
  41   21   22 1
  42   23   24 1
  43   23   40 1
  44   23   41 1
  45   24   42 1
  46   24   43 1

#	End of record

