#	Name: ASD02198604
#	Creating user name:	WinNT
#	Creation time:	15. 06. 2019 20:19

#	Modifying user name:	WinNT
#	Modification time:	15. 06. 2019 20:19

#	Program:	/corina/corina34_cracker 3.40 0067  02.08.2006

@<TRIPOS>MOLECULE
ASD02198604
  38   41    0    0    0
SMALL
NO_CHARGES


@<TRIPOS>ATOM
   1 C1            -0.0439     1.5052    -0.1134 C.2     
   2 C2            -0.0745     0.1656     0.0995 C.2     
   3 N3             1.0694    -0.5368     0.2617 N.pl3   
   4 N4             2.2343    -0.0029     0.2276 N.2     
   5 C5             2.4068     1.2861     0.0290 C.2     
   6 C6             1.2215     2.1382    -0.1594 C.2     
   7 C7             0.9769    -1.9160     0.4782 C.ar    
   8 C8             1.5765    -2.4877     1.5950 C.ar    
   9 C9             1.4822    -3.8538     1.8050 C.ar    
  10 C10            0.7921    -4.6467     0.9040 C.ar    
  11 C11            0.1961    -4.0783    -0.2071 C.ar    
  12 C12            0.2810    -2.7164    -0.4191 C.ar    
  13 C13            3.7643     1.8673    -0.0042 C.2     
  14 N14            4.3065     2.6065    -1.0177 N.pl3   
  15 N15            5.6089     2.9568    -0.6407 N.2     
  16 C16            5.8528     2.4572     0.5447 C.2     
  17 C17            4.7202     1.7712     0.9832 C.2     
  18 C18            3.6732     2.9516    -2.2185 C.ar    
  19 C19            2.9054     2.0129    -2.8950 C.ar    
  20 O20            1.3254     3.3411    -0.3477 O.2     
  21 C21            3.8072     4.2349    -2.7320 C.ar    
  22 C22            3.1816     4.5720    -3.9162 C.ar    
  23 C23            2.4224     3.6333    -4.5904 C.ar    
  24 C24            2.2823     2.3562    -4.0787 C.ar    
  25 F25            2.2499    -1.7127     2.4731 F       
  26 F26            2.0640    -4.4124     2.8888 F       
  27 H27           -0.9549     2.0695    -0.2479 H       
  28 H28           -1.0247    -0.3461     0.1402 H       
  29 H29            0.7193    -5.7116     1.0690 H       
  30 H30           -0.3408    -4.7003    -0.9080 H       
  31 H31           -0.1852    -2.2749    -1.2874 H       
  32 H32            6.7766     2.5626     1.0941 H       
  33 H33            4.6141     1.2523     1.9244 H       
  34 H34            2.7960     1.0152    -2.4960 H       
  35 H35            4.3998     4.9686    -2.2057 H       
  36 H36            3.2852     5.5700    -4.3159 H       
  37 H37            1.9342     3.8993    -5.5163 H       
  38 H38            1.6890     1.6252    -4.6078 H       
@<TRIPOS>BOND
   1    1    2 2
   2    1    6 1
   3    1   27 1
   4    2    3 1
   5    2   28 1
   6    3    4 1
   7    3    7 1
   8    4    5 2
   9    5    6 1
  10    5   13 1
  11    6   20 2
  12    7    8 ar
  13    7   12 ar
  14    8    9 ar
  15    8   25 1
  16    9   10 ar
  17    9   26 1
  18   10   11 ar
  19   10   29 1
  20   11   12 ar
  21   11   30 1
  22   12   31 1
  23   13   14 1
  24   13   17 2
  25   14   15 1
  26   14   18 1
  27   15   16 2
  28   16   17 1
  29   16   32 1
  30   17   33 1
  31   18   21 ar
  32   18   19 ar
  33   19   24 ar
  34   19   34 1
  35   21   22 ar
  36   21   35 1
  37   22   23 ar
  38   22   36 1
  39   23   24 ar
  40   23   37 1
  41   24   38 1

#	End of record

