#	Name: ASD01940474
#	Creating user name:	WinNT
#	Creation time:	15. 06. 2019 20:12

#	Modifying user name:	WinNT
#	Modification time:	15. 06. 2019 20:12

#	Program:	/corina/corina34_cracker 3.40 0067  02.08.2006

@<TRIPOS>MOLECULE
ASD01940474
  17   17    0    0    0
SMALL
NO_CHARGES


@<TRIPOS>ATOM
   1 C1            -0.0179     1.4703     0.0101 C.2     
   2 C2             0.0021    -0.0041     0.0020 C.ar    
   3 C3             1.2207    -0.6872    -0.0133 C.ar    
   4 C4             1.2287    -2.0867    -0.0209 C.ar    
   5 C5             0.0140    -2.7890    -0.0131 C.ar    
   6 C6            -1.1861    -2.0997     0.0020 C.ar    
   7 C7            -1.1988    -0.7209     0.0154 C.ar    
   8 O8             1.0260     2.0921     0.0035 O.2     
   9 O9            -1.1939     2.1281     0.0193 O.3     
  10 C10            2.5024    -2.8167    -0.0375 C.2     
  11 O11            2.5062    -4.0297    -0.0441 O.2     
  12 F12            0.0159    -4.1400    -0.0209 F       
  13 F13            2.3843    -0.0009    -0.0211 F       
  14 H14           -2.1182    -2.6451     0.0079 H       
  15 H15           -2.1404    -0.1921     0.0321 H       
  16 H16           -1.1564     3.0944     0.0244 H       
  17 H17            3.4359    -2.2738    -0.0438 H       
@<TRIPOS>BOND
   1    1    2 1
   2    1    8 2
   3    1    9 1
   4    2    3 ar
   5    2    7 ar
   6    3    4 ar
   7    3   13 1
   8    4    5 ar
   9    4   10 1
  10    5    6 ar
  11    5   12 1
  12    6    7 ar
  13    6   14 1
  14    7   15 1
  15    9   16 1
  16   10   11 2
  17   10   17 1

#	End of record

