#	Name: ASD01810143
#	Creating user name:	WinNT
#	Creation time:	15. 06. 2019 19:23

#	Modifying user name:	WinNT
#	Modification time:	15. 06. 2019 19:23

#	Program:	/corina/corina34_cracker 3.40 0067  02.08.2006

@<TRIPOS>MOLECULE
ASD01810143
  34   36    0    0    0
SMALL
NO_CHARGES


@<TRIPOS>ATOM
   1 C1             1.7150     2.4267     0.9735 C.ar    
   2 C2             1.2289     1.1298     1.0363 C.ar    
   3 C3             2.0231     0.0605     0.6752 C.ar    
   4 C4             3.3294     0.2781     0.2410 C.ar    
   5 C5             3.8206     1.5933     0.1774 C.ar    
   6 C6             3.0057     2.6664     0.5464 C.ar    
   7 N7             4.1329    -0.7825    -0.1215 N.pl3   
   8 C8             5.3938    -0.6259    -0.5439 C.2     
   9 C9             5.9856     0.6168    -0.6476 C.2     
  10 C10            5.2035     1.8097    -0.2834 C.2     
  11 O11            5.6802     2.9287    -0.3581 O.2     
  12 C12            7.3729     0.7470    -1.1147 C.2     
  13 O13            7.9398     1.9662    -1.2118 O.3     
  14 O14            8.0092    -0.2448    -1.4135 O.2     
  15 C15            3.5837    -2.1382    -0.0406 C.3     
  16 F16            1.5345    -1.1972     0.7430 F       
  17 C17            3.7124    -2.6489     1.3714 C.ar    
  18 C18            2.5891    -3.0620     2.0619 C.ar    
  19 C19            2.7064    -3.5306     3.3573 C.ar    
  20 C20            3.9484    -3.5865     3.9635 C.ar    
  21 C21            5.0739    -3.1735     3.2739 C.ar    
  22 C22            4.9574    -2.7096     1.9750 C.ar    
  23 F23            6.0561    -2.3064     1.3002 F       
  24 Br24           4.1074    -4.2272     5.7356 Br      
  25 F25            3.4775     3.9309     0.4850 F       
  26 H26            1.0797     3.2533     1.2556 H       
  27 H27            0.2175     0.9543     1.3719 H       
  28 H28            5.9670    -1.5010    -0.8121 H       
  29 H29            8.8544     2.0015    -1.5237 H       
  30 H30            2.5320    -2.1218    -0.3265 H       
  31 H31            4.1336    -2.7939    -0.7157 H       
  32 H32            1.6188    -3.0183     1.5896 H       
  33 H33            1.8278    -3.8529     3.8962 H       
  34 H34            6.0436    -3.2165     3.7474 H       
@<TRIPOS>BOND
   1    1    2 ar
   2    1    6 ar
   3    1   26 1
   4    2    3 ar
   5    2   27 1
   6    3    4 ar
   7    3   16 1
   8    4    5 ar
   9    4    7 1
  10    5    6 ar
  11    5   10 1
  12    6   25 1
  13    7    8 1
  14    7   15 1
  15    8    9 2
  16    8   28 1
  17    9   10 1
  18    9   12 1
  19   10   11 2
  20   12   13 1
  21   12   14 2
  22   13   29 1
  23   15   17 1
  24   15   30 1
  25   15   31 1
  26   17   18 ar
  27   17   22 ar
  28   18   19 ar
  29   18   32 1
  30   19   20 ar
  31   19   33 1
  32   20   21 ar
  33   20   24 1
  34   21   22 ar
  35   21   34 1
  36   22   23 1

#	End of record

