#	Name: ASD03092343
#	Creating user name:	WinNT
#	Creation time:	15. 06. 2019 20:32

#	Modifying user name:	WinNT
#	Modification time:	15. 06. 2019 20:32

#	Program:	/corina/corina34_cracker 3.40 0067  02.08.2006

@<TRIPOS>MOLECULE
ASD03092343
  62   65    0    0    0
SMALL
NO_CHARGES


@<TRIPOS>ATOM
   1 C1            -0.0314     2.1773     0.7365 C.3     
   2 C2            -0.0151     0.6541     0.9478 C.3     
   3 C3             1.3777     0.8350     1.5741 C.3     
   4 C4             1.5051     2.1136     0.7293 C.3     
   5 C5            -0.7161     4.1073    -0.6618 C.2     
   6 C6            -0.6334     2.6037    -0.6039 C.3     
   7 O7            -0.3313     4.7724     0.2766 O.2     
   8 N8            -1.2175     4.7129    -1.7564 N.am    
   9 C9            -1.2979     6.1746    -1.8127 C.3     
  10 S10           -2.2230     7.3591    -5.5194 S.3     
  11 C11           -3.5758     7.0306    -4.5272 C.2     
  12 N12           -3.1875     6.6538    -3.3461 N.2     
  13 C13           -1.8909     6.5946    -3.1330 C.2     
  14 C14           -1.1366     6.9419    -4.1967 C.2     
  15 C15            2.4014     8.0571    -4.7824 C.ar    
  16 C16            1.0237     8.0759    -4.7584 C.ar    
  17 C17            0.3384     6.9672    -4.2439 C.ar    
  18 C18            1.0928     5.8833    -3.7752 C.ar    
  19 C19            2.4678     5.9498    -3.8380 C.ar    
  20 N20            3.0735     7.0146    -4.3303 N.ar    
  21 C21            3.2915     4.7914    -3.3374 C.3     
  22 C22            3.1511     9.2402    -5.3387 C.3     
  23 N23           -4.8950     7.1494    -4.9249 N.3     
  24 C24           -4.9858     7.5976    -6.3221 C.3     
  25 C25           -6.4586     7.7728    -6.7016 C.3     
  26 O26           -7.1520     6.5415    -6.4818 O.3     
  27 C27           -7.0848     6.0759    -5.1312 C.3     
  28 C28           -5.6183     5.8835    -4.7359 C.3     
  29 C29           -7.8250     4.7421    -5.0131 C.3     
  30 C30           -6.5631     8.1616    -8.1776 C.3     
  31 H31           -0.4415     2.7309     1.5811 H       
  32 H32           -0.7686     0.3030     1.6528 H       
  33 H33           -0.0053     0.0845     0.0185 H       
  34 H34            1.3528     1.0216     2.6477 H       
  35 H35            2.0864     0.0551     1.2953 H       
  36 H36            1.9304     1.9430    -0.2597 H       
  37 H37            1.9788     2.9408     1.2580 H       
  38 H38           -0.0030     2.2428    -1.4166 H       
  39 H39           -1.6330     2.1807    -0.7042 H       
  40 H40           -1.5252     4.1810    -2.5069 H       
  41 H41           -1.9283     6.5355    -1.0001 H       
  42 H42           -0.2983     6.5976    -1.7124 H       
  43 H43            0.4805     8.9324    -5.1297 H       
  44 H44            0.6041     5.0093    -3.3705 H       
  45 H45            3.4676     4.0911    -4.1539 H       
  46 H46            4.2463     5.1598    -2.9623 H       
  47 H47            2.7562     4.2854    -2.5339 H       
  48 H48            3.3540     9.9510    -4.5377 H       
  49 H49            4.0926     8.9026    -5.7720 H       
  50 H50            2.5490     9.7225    -6.1087 H       
  51 H51           -4.4655     8.5488    -6.4337 H       
  52 H52           -4.5282     6.8531    -6.9736 H       
  53 H53           -6.9024     8.5553    -6.0861 H       
  54 H54           -7.5468     6.8091    -4.4701 H       
  55 H55           -5.1708     5.1116    -5.3620 H       
  56 H56           -5.5597     5.5836    -3.6896 H       
  57 H57           -7.3609     4.0093    -5.6732 H       
  58 H58           -7.7733     4.3878    -3.9836 H       
  59 H59           -8.8680     4.8789    -5.2984 H       
  60 H60           -6.1208     7.3775    -8.7921 H       
  61 H61           -7.6119     8.2862    -8.4471 H       
  62 H62           -6.0312     9.0981    -8.3452 H       
@<TRIPOS>BOND
   1    1    2 1
   2    1    4 1
   3    1    6 1
   4    1   31 1
   5    2    3 1
   6    2   32 1
   7    2   33 1
   8    3    4 1
   9    3   34 1
  10    3   35 1
  11    4   36 1
  12    4   37 1
  13    5    6 1
  14    5    7 2
  15    5    8 am
  16    6   38 1
  17    6   39 1
  18    8    9 1
  19    8   40 1
  20    9   13 1
  21    9   41 1
  22    9   42 1
  23   10   11 1
  24   10   14 1
  25   11   12 2
  26   11   23 1
  27   12   13 1
  28   13   14 2
  29   14   17 1
  30   15   16 ar
  31   15   20 ar
  32   15   22 1
  33   16   17 ar
  34   16   43 1
  35   17   18 ar
  36   18   19 ar
  37   18   44 1
  38   19   20 ar
  39   19   21 1
  40   21   45 1
  41   21   46 1
  42   21   47 1
  43   22   48 1
  44   22   49 1
  45   22   50 1
  46   23   24 1
  47   23   28 1
  48   24   25 1
  49   24   51 1
  50   24   52 1
  51   25   26 1
  52   25   30 1
  53   25   53 1
  54   26   27 1
  55   27   28 1
  56   27   29 1
  57   27   54 1
  58   28   55 1
  59   28   56 1
  60   29   57 1
  61   29   58 1
  62   29   59 1
  63   30   60 1
  64   30   61 1
  65   30   62 1

#	End of record

