#	Name: ASD02198447
#	Creating user name:	WinNT
#	Creation time:	15. 06. 2019 20:19

#	Modifying user name:	WinNT
#	Modification time:	15. 06. 2019 20:19

#	Program:	/corina/corina34_cracker 3.40 0067  02.08.2006

@<TRIPOS>MOLECULE
ASD02198447
  57   59    0    0    0
SMALL
NO_CHARGES


@<TRIPOS>ATOM
   1 O1             0.3244     0.1684    -0.1679 O.2     
   2 S2             0.0612     1.5619    -0.0776 S.o2    
   3 O3             1.0863     2.5431    -0.0017 O.2     
   4 C4            -0.9199     1.9749    -1.4817 C.ar    
   5 N5            -0.8880     1.7726     1.2628 N.am    
   6 C6            -0.9388     3.2752    -1.9518 C.ar    
   7 C7            -1.7068     3.6022    -3.0522 C.ar    
   8 C8            -2.4603     2.6233    -3.6868 C.ar    
   9 C9            -2.4388     1.3183    -3.2125 C.ar    
  10 C10           -1.6649     0.9968    -2.1146 C.ar    
  11 N11           -3.2398     2.9514    -4.8015 N.am    
  12 C12           -2.7997     3.8691    -5.6850 C.2     
  13 C13           -2.0662     0.9261     1.4665 C.3     
  14 C14           -1.6738    -0.3014     2.2477 C.ar    
  15 S15           -3.3244     1.8526     2.3880 S.o2    
  16 O16           -2.7649     2.4174     3.5657 O.2     
  17 C17           -3.6822     3.2432     1.3668 C.ar    
  18 O18           -4.5453     1.1269     2.4321 O.2     
  19 C19           -4.6848     3.1625     0.4178 C.ar    
  20 C20           -2.9636     4.4147     1.5199 C.ar    
  21 C21           -3.2419     5.5066     0.7213 C.ar    
  22 C22           -4.2443     5.4270    -0.2365 C.ar    
  23 C23           -4.9673     4.2506    -0.3845 C.ar    
  24 N24           -4.5287     6.5315    -1.0472 N.am    
  25 C25           -4.4369     7.7783    -0.5438 C.2     
  26 O26           -4.0278     7.9479     0.5853 O.2     
  27 C27           -4.8425     8.9618    -1.3840 C.3     
  28 C28           -2.2860    -1.5148     1.9835 C.ar    
  29 C29           -1.9254    -2.6423     2.7013 C.ar    
  30 C30           -0.9530    -2.5551     3.6822 C.ar    
  31 C31           -0.3419    -1.3403     3.9447 C.ar    
  32 C32           -0.6987    -0.2167     3.2238 C.ar    
  33 F33           -3.2354    -1.5984     1.0260 F       
  34 F34           -0.6003    -3.6545     4.3838 F       
  35 C35           -3.5896     4.1485    -6.9377 C.3     
  36 O36           -1.7680     4.4702    -5.4720 O.2     
  37 H37           -0.6639     2.4566     1.9131 H       
  38 H38           -0.3526     4.0360    -1.4578 H       
  39 H39           -1.7217     4.6180    -3.4184 H       
  40 H40           -3.0236     0.5548    -3.7039 H       
  41 H41           -1.6475    -0.0180    -1.7455 H       
  42 H42           -4.0969     2.5183    -4.9384 H       
  43 H43           -2.4706     0.6274     0.4994 H       
  44 H44           -5.2471     2.2476     0.3036 H       
  45 H45           -2.1842     4.4759     2.2649 H       
  46 H46           -2.6808     6.4215     0.8418 H       
  47 H47           -5.7475     4.1856    -1.1285 H       
  48 H48           -4.7920     6.3997    -1.9715 H       
  49 H49           -5.8920     8.8670    -1.6626 H       
  50 H50           -4.6998     9.8790    -0.8126 H       
  51 H51           -4.2292     8.9955    -2.2844 H       
  52 H52           -2.4027    -3.5891     2.4962 H       
  53 H53            0.4167    -1.2720     4.7104 H       
  54 H54           -0.2216     0.7302     3.4292 H       
  55 H55           -4.5860     4.4988    -6.6684 H       
  56 H56           -3.0816     4.9139    -7.5244 H       
  57 H57           -3.6724     3.2349    -7.5263 H       
@<TRIPOS>BOND
   1    1    2 2
   2    2    3 2
   3    2    4 1
   4    2    5 am
   5    4    6 ar
   6    4   10 ar
   7    5   13 1
   8    5   37 1
   9    6    7 ar
  10    6   38 1
  11    7    8 ar
  12    7   39 1
  13    8    9 ar
  14    8   11 1
  15    9   10 ar
  16    9   40 1
  17   10   41 1
  18   11   12 am
  19   11   42 1
  20   12   35 1
  21   12   36 2
  22   13   14 1
  23   13   15 1
  24   13   43 1
  25   14   28 ar
  26   14   32 ar
  27   15   16 2
  28   15   17 1
  29   15   18 2
  30   17   19 ar
  31   17   20 ar
  32   19   23 ar
  33   19   44 1
  34   20   21 ar
  35   20   45 1
  36   21   22 ar
  37   21   46 1
  38   22   23 ar
  39   22   24 1
  40   23   47 1
  41   24   25 am
  42   24   48 1
  43   25   26 2
  44   25   27 1
  45   27   49 1
  46   27   50 1
  47   27   51 1
  48   28   29 ar
  49   28   33 1
  50   29   30 ar
  51   29   52 1
  52   30   31 ar
  53   30   34 1
  54   31   32 ar
  55   31   53 1
  56   32   54 1
  57   35   55 1
  58   35   56 1
  59   35   57 1

#	End of record

