#	Name: ASD01911782
#	Creating user name:	WinNT
#	Creation time:	15. 06. 2019 19:58

#	Modifying user name:	WinNT
#	Modification time:	15. 06. 2019 19:58

#	Program:	/corina/corina34_cracker 3.40 0067  02.08.2006

@<TRIPOS>MOLECULE
ASD01911782
  41   43    0    0    0
SMALL
NO_CHARGES


@<TRIPOS>ATOM
   1 C1            -0.0184     1.5028     0.0103 C.3     
   2 C2             0.0021    -0.0041     0.0020 C.2     
   3 C3            -1.1006    -0.7218    -0.5078 C.2     
   4 C4            -1.2133    -2.0900    -0.5750 C.2     
   5 S5            -2.5794    -0.0219    -1.1635 S.3     
   6 C6            -3.2061    -1.6386    -1.4723 C.2     
   7 N7            -2.3259    -2.5301    -1.0852 N.2     
   8 C8            -4.4816    -1.9339    -2.0524 C.1     
   9 C9            -5.5273    -2.1760    -2.5280 C.1     
  10 C10           -6.8028    -2.4714    -3.1081 C.ar    
  11 C11           -7.1943    -3.7991    -3.3061 C.ar    
  12 C12           -8.4240    -4.0754    -3.8654 C.ar    
  13 C13           -9.2700    -3.0426    -4.2304 C.ar    
  14 C14           -8.8897    -1.7259    -4.0376 C.ar    
  15 C15           -7.6655    -1.4336    -3.4742 C.ar    
  16 C16            1.0906     2.0228     0.9272 C.3     
  17 C17            0.2083     2.0237    -1.4103 C.3     
  18 C18            1.5646     1.5349    -1.9225 C.3     
  19 C19            2.6735     2.0549    -1.0056 C.3     
  20 C20            2.4469     1.5340     0.4150 C.3     
  21 O21            0.9679    -0.6008     0.4342 O.2     
  22 C22            4.0299     1.5661    -1.5178 C.3     
  23 H23           -0.9846     1.8510     0.3752 H       
  24 H24           -0.4336    -2.7524    -0.2292 H       
  25 H25           -6.5350    -4.6060    -3.0221 H       
  26 H26           -8.7277    -5.1003    -4.0193 H       
  27 H27          -10.2318    -3.2654    -4.6683 H       
  28 H28           -9.5553    -0.9255    -4.3250 H       
  29 H29           -7.3701    -0.4056    -3.3244 H       
  30 H30            1.0758     3.1127     0.9332 H       
  31 H31            0.9292     1.6517     1.9392 H       
  32 H32           -0.5818     1.6532    -2.0635 H       
  33 H33            0.1935     3.1136    -1.4043 H       
  34 H34            1.5794     0.4450    -1.9285 H       
  35 H35            1.7260     1.9060    -2.9346 H       
  36 H36            2.6588     3.1448    -0.9996 H       
  37 H37            3.2370     1.9045     1.0682 H       
  38 H38            2.4617     0.4441     0.4090 H       
  39 H39            4.1913     1.9372    -2.5299 H       
  40 H40            4.8199     1.9366    -0.8646 H       
  41 H41            4.0446     0.4762    -1.5238 H       
@<TRIPOS>BOND
   1    1    2 1
   2    1   17 1
   3    1   16 1
   4    1   23 1
   5    2    3 1
   6    2   21 2
   7    3    4 2
   8    3    5 1
   9    4    7 1
  10    4   24 1
  11    5    6 1
  12    6    7 2
  13    6    8 1
  14    8    9 3
  15    9   10 1
  16   10   11 ar
  17   10   15 ar
  18   11   12 ar
  19   11   25 1
  20   12   13 ar
  21   12   26 1
  22   13   14 ar
  23   13   27 1
  24   14   15 ar
  25   14   28 1
  26   15   29 1
  27   16   20 1
  28   16   30 1
  29   16   31 1
  30   17   18 1
  31   17   32 1
  32   17   33 1
  33   18   19 1
  34   18   34 1
  35   18   35 1
  36   19   20 1
  37   19   22 1
  38   19   36 1
  39   20   37 1
  40   20   38 1
  41   22   39 1
  42   22   40 1
  43   22   41 1

#	End of record

