#	Name: ASD04882478
#	Creating user name:	WinNT
#	Creation time:	15. 06. 2019 20:54

#	Modifying user name:	WinNT
#	Modification time:	15. 06. 2019 20:54

#	Program:	/corina/corina34_cracker 3.40 0067  02.08.2006

@<TRIPOS>MOLECULE
ASD04882478
  84   88    0    0    0
SMALL
NO_CHARGES


@<TRIPOS>ATOM
   1 C1            -2.0650     4.9098     1.1464 C.ar    
   2 C2            -1.9369     3.6025     1.6241 C.ar    
   3 C3            -3.0460     2.7656     1.6704 C.ar    
   4 C4            -4.2746     3.2212     1.2464 C.ar    
   5 C5            -4.4098     4.5275     0.7680 C.ar    
   6 C6            -3.2973     5.3726     0.7249 C.ar    
   7 N7            -0.6967     3.1377     2.0539 N.3     
   8 C8            -0.7465     2.7320     3.4654 C.3     
   9 C9            -0.2264     2.0322     1.2075 C.3     
  10 C10            1.1708     1.6039     1.6620 C.3     
  11 N11            1.1210     1.1982     3.0736 N.3     
  12 C12            0.6508     2.3037     3.9200 C.3     
  13 C13           -5.7259     5.0153     0.3139 C.2     
  14 O14           -5.8426     6.1519    -0.1022 O.2     
  15 N15           -6.7990     4.2012     0.3602 N.am    
  16 N16           -0.9466     5.7521     1.1004 N.am    
  17 C17            2.3650     0.7319     3.5046 C.ar    
  18 C18            2.4951    -0.5667     3.9798 C.ar    
  19 C19            3.7270    -1.0247     4.4048 C.ar    
  20 C20            4.8297    -0.1919     4.3581 C.ar    
  21 C21            4.7036     1.1018     3.8855 C.ar    
  22 C22            3.4763     1.5642     3.4537 C.ar    
  23 C23           -1.1009     7.0848     1.2290 C.2     
  24 C24            0.0764     7.9569     1.2881 C.2     
  25 O25           -2.2175     7.5645     1.2961 O.2     
  26 C26            0.0624     9.3163     1.4165 C.2     
  27 C27            1.4024     9.7342     1.4305 C.2     
  28 C28            2.1659     8.6256     1.3115 C.2     
  29 O29            1.3634     7.5562     1.2311 O.3     
  30 C30            1.2936    -1.4748     4.0320 C.3     
  31 C31           -8.1060     4.6856    -0.0907 C.3     
  32 C32           -9.1285     3.5893     0.0635 C.ar    
  33 C33           -9.8387     3.4677     1.2429 C.ar    
  34 C34          -10.7768     2.4620     1.3845 C.ar    
  35 C35          -11.0047     1.5785     0.3463 C.ar    
  36 C36          -10.2950     1.7007    -0.8339 C.ar    
  37 C37           -9.3603     2.7088    -0.9769 C.ar    
  38 C38          -10.5431     0.7371    -1.9656 C.3     
  39 N39          -11.6028     1.2654    -2.8351 N.3     
  40 C40          -11.1652     2.4937    -3.5115 C.3     
  41 C41          -12.3832     3.2243    -4.0804 C.3     
  42 C42          -12.0378     0.2547    -3.8084 C.3     
  43 C43          -12.9235    -0.7786    -3.1093 C.3     
  44 H44           -2.9439     1.7557     2.0393 H       
  45 H45           -5.1342     2.5685     1.2832 H       
  46 H46           -3.3988     6.3826     0.3560 H       
  47 H47           -1.0854     3.5710     4.0732 H       
  48 H48           -1.4379     1.8971     3.5797 H       
  49 H49           -0.9119     1.1894     1.2960 H       
  50 H50           -0.1861     2.3610     0.1690 H       
  51 H51            1.5097     0.7649     1.0543 H       
  52 H52            1.8622     2.4387     1.5478 H       
  53 H53            1.3363     3.1465     3.8314 H       
  54 H54            0.6105     1.9749     4.9585 H       
  55 H55           -6.7059     3.2945     0.6921 H       
  56 H56           -0.0611     5.3762     0.9760 H       
  57 H57            3.8288    -2.0344     4.7744 H       
  58 H58            5.7916    -0.5524     4.6917 H       
  59 H59            5.5669     1.7498     3.8507 H       
  60 H60            3.3786     2.5744     3.0845 H       
  61 H61           -0.8105     9.9478     1.4920 H       
  62 H62            1.7566    10.7506     1.5195 H       
  63 H63            3.2455     8.6050     1.2887 H       
  64 H64            1.2102    -2.0213     3.0927 H       
  65 H65            1.4074    -2.1810     4.8545 H       
  66 H66            0.3942    -0.8788     4.1867 H       
  67 H67           -8.4018     5.5455     0.5101 H       
  68 H68           -8.0430     4.9788    -1.1387 H       
  69 H69           -9.6606     4.1581     2.0541 H       
  70 H70          -11.3313     2.3666     2.3063 H       
  71 H71          -11.7370     0.7925     0.4571 H       
  72 H72           -8.8058     2.8042    -1.8988 H       
  73 H73           -9.6275     0.6120    -2.5437 H       
  74 H74          -10.8519    -0.2268    -1.5610 H       
  75 H75          -10.6549     3.1398    -2.7972 H       
  76 H76          -10.4831     2.2386    -4.3225 H       
  77 H77          -12.0570     4.1272    -4.5966 H       
  78 H78          -12.9030     2.5721    -4.7823 H       
  79 H79          -13.0575     3.4940    -3.2675 H       
  80 H80          -12.6029     0.7377    -4.6056 H       
  81 H81          -11.1646    -0.2419    -4.2314 H       
  82 H82          -13.7444    -0.2706    -2.6032 H       
  83 H83          -13.3255    -1.4718    -3.8482 H       
  84 H84          -12.3315    -1.3296    -2.3785 H       
@<TRIPOS>BOND
   1    1    2 ar
   2    1   16 1
   3    1    6 ar
   4    2    3 ar
   5    2    7 1
   6    3    4 ar
   7    3   44 1
   8    4    5 ar
   9    4   45 1
  10    5    6 ar
  11    5   13 1
  12    6   46 1
  13    7    8 1
  14    7    9 1
  15    8   12 1
  16    8   47 1
  17    8   48 1
  18    9   10 1
  19    9   49 1
  20    9   50 1
  21   10   11 1
  22   10   51 1
  23   10   52 1
  24   11   12 1
  25   11   17 1
  26   12   53 1
  27   12   54 1
  28   13   14 2
  29   13   15 am
  30   15   31 1
  31   15   55 1
  32   16   23 am
  33   16   56 1
  34   17   18 ar
  35   17   22 ar
  36   18   19 ar
  37   18   30 1
  38   19   20 ar
  39   19   57 1
  40   20   21 ar
  41   20   58 1
  42   21   22 ar
  43   21   59 1
  44   22   60 1
  45   23   24 1
  46   23   25 2
  47   24   26 2
  48   24   29 1
  49   26   27 1
  50   26   61 1
  51   27   28 2
  52   27   62 1
  53   28   29 1
  54   28   63 1
  55   30   64 1
  56   30   65 1
  57   30   66 1
  58   31   32 1
  59   31   67 1
  60   31   68 1
  61   32   33 ar
  62   32   37 ar
  63   33   34 ar
  64   33   69 1
  65   34   35 ar
  66   34   70 1
  67   35   36 ar
  68   35   71 1
  69   36   37 ar
  70   36   38 1
  71   37   72 1
  72   38   39 1
  73   38   73 1
  74   38   74 1
  75   39   40 1
  76   39   42 1
  77   40   41 1
  78   40   75 1
  79   40   76 1
  80   41   77 1
  81   41   78 1
  82   41   79 1
  83   42   43 1
  84   42   80 1
  85   42   81 1
  86   43   82 1
  87   43   83 1
  88   43   84 1

#	End of record

