#	Name: ASD01901266
#	Creating user name:	WinNT
#	Creation time:	15. 06. 2019 19:53

#	Modifying user name:	WinNT
#	Modification time:	15. 06. 2019 19:53

#	Program:	/corina/corina34_cracker 3.40 0067  02.08.2006

@<TRIPOS>MOLECULE
ASD01901266
  48   51    0    0    0
SMALL
NO_CHARGES


@<TRIPOS>ATOM
   1 C1             0.7713     1.4468     1.7649 C.ar    
   2 C2             0.7212     0.0690     1.7996 C.ar    
   3 C3             0.8364    -0.6607     0.6295 C.ar    
   4 C4             1.0025    -0.0150    -0.5831 C.ar    
   5 C5             1.0545     1.3623    -0.6335 C.ar    
   6 C6             0.9385     2.1059     0.5440 C.ar    
   7 C7             0.9910     3.5362     0.4998 C.1     
   8 C8             1.0341     4.7089     0.4635 C.1     
   9 C9             1.0866     6.1392     0.4193 C.ar    
  10 C10            1.0342     8.2698     1.5029 C.ar    
  11 C11            0.9772     6.8925     1.5974 C.ar    
  12 C12            1.2534     6.8053    -0.7972 C.ar    
  13 N13            1.3025     8.1204    -0.8408 N.ar    
  14 C14            1.1973     8.8597     0.2525 C.ar    
  15 N15            1.2551    10.2508     0.1504 N.am    
  16 N16            2.5807    12.2017     0.1376 N.am    
  17 C17            2.4448    10.8675     0.2275 C.2     
  18 C18            0.1135    10.9498    -0.0295 C.2     
  19 C19            0.2021    12.4168    -0.1346 C.ar    
  20 C20            1.4711    13.0148    -0.0423 C.ar    
  21 C21            1.5882    14.3931    -0.1370 C.ar    
  22 C22           -0.9293    13.2078    -0.3211 C.ar    
  23 C23           -0.7931    14.5770    -0.4138 C.ar    
  24 C24            0.4582    15.1662    -0.3154 C.ar    
  25 C25            3.9134    12.8031     0.2309 C.3     
  26 O26            3.4420    10.1904     0.3857 O.2     
  27 O27           -0.9598    10.3830    -0.1033 O.2     
  28 Cl28           0.9044     9.2536     2.9274 Cl      
  29 C29            4.5368    12.4542     1.5839 C.3     
  30 C30            4.7978    12.2601    -0.8933 C.3     
  31 H31            0.6772     2.0152     2.6784 H       
  32 H32            0.5921    -0.4417     2.7425 H       
  33 H33            0.7968    -1.7394     0.6629 H       
  34 H34            1.0921    -0.5910    -1.4923 H       
  35 H35            1.1849     1.8648    -1.5805 H       
  36 H36            0.8512     6.4081     2.5544 H       
  37 H37            1.3433     6.2362    -1.7106 H       
  38 H38            2.5597    14.8603    -0.0712 H       
  39 H39           -1.9059    12.7521    -0.3930 H       
  40 H40           -1.6671    15.1946    -0.5588 H       
  41 H41            0.5510    16.2397    -0.3890 H       
  42 H42            3.8307    13.8859     0.1373 H       
  43 H43            4.6194    11.3714     1.6774 H       
  44 H44            5.5283    12.9017     1.6533 H       
  45 H45            3.9067    12.8411     2.3848 H       
  46 H46            4.3537    12.5086    -1.8572 H       
  47 H47            5.7893    12.7075    -0.8239 H       
  48 H48            4.8804    11.1773    -0.7998 H       
@<TRIPOS>BOND
   1    1    2 ar
   2    1    6 ar
   3    1   31 1
   4    2    3 ar
   5    2   32 1
   6    3    4 ar
   7    3   33 1
   8    4    5 ar
   9    4   34 1
  10    5    6 ar
  11    5   35 1
  12    6    7 1
  13    7    8 3
  14    8    9 1
  15    9   12 ar
  16    9   11 ar
  17   10   11 ar
  18   10   14 ar
  19   10   28 1
  20   11   36 1
  21   12   13 ar
  22   12   37 1
  23   13   14 ar
  24   14   15 1
  25   15   18 am
  26   15   17 am
  27   16   17 am
  28   16   20 1
  29   16   25 1
  30   17   26 2
  31   18   19 1
  32   18   27 2
  33   19   22 ar
  34   19   20 ar
  35   20   21 ar
  36   21   24 ar
  37   21   38 1
  38   22   23 ar
  39   22   39 1
  40   23   24 ar
  41   23   40 1
  42   24   41 1
  43   25   29 1
  44   25   30 1
  45   25   42 1
  46   29   43 1
  47   29   44 1
  48   29   45 1
  49   30   46 1
  50   30   47 1
  51   30   48 1

#	End of record

