#	Name: ASD01948079
#	Creating user name:	WinNT
#	Creation time:	15. 06. 2019 20:13

#	Modifying user name:	WinNT
#	Modification time:	15. 06. 2019 20:13

#	Program:	/corina/corina34_cracker 3.40 0067  02.08.2006

@<TRIPOS>MOLECULE
ASD01948079
  23   24    0    0    0
SMALL
NO_CHARGES


@<TRIPOS>ATOM
   1 C1            -0.0565     1.3022    -0.0290 C.2     
   2 C2             0.0478    -0.0760    -0.0242 C.2     
   3 C3             1.3038    -0.6874    -0.0004 C.2     
   4 C4             2.4288     0.1252     0.0180 C.2     
   5 C5             2.2782     1.5031     0.0123 C.2     
   6 N6             1.0462     2.0943    -0.0110 N.am    
   7 S7            -1.5196     2.2984    -0.0647 S.3     
   8 C8             0.8160     3.5384    -0.0183 C.3     
   9 C9            -0.6660     3.9023    -0.0478 C.3     
  10 O10            3.2751     2.2092     0.0290 O.2     
  11 N11           -1.1766    -0.9078    -0.0437 N.pl3   
  12 O12           -2.2714    -0.3824     0.0498 O.2     
  13 O13           -1.0891    -2.1177    -0.1534 O.2     
  14 C14            3.8057    -0.4867     0.0444 C.3     
  15 O15            1.4205    -2.0374     0.0051 O.3     
  16 H16            1.2677     3.9709     0.8744 H       
  17 H17            1.2994     3.9671    -0.8961 H       
  18 H18           -0.8986     4.4677    -0.9502 H       
  19 H19           -0.9402     4.4709     0.8409 H       
  20 H20            3.7204    -1.5734     0.0456 H       
  21 H21            4.3625    -0.1669    -0.8364 H       
  22 H22            4.3302    -0.1625     0.9432 H       
  23 H23            0.5771    -2.5048     0.0784 H       
@<TRIPOS>BOND
   1    1    2 2
   2    1    6 1
   3    1    7 1
   4    2    3 1
   5    2   11 1
   6    3    4 2
   7    3   15 1
   8    4    5 1
   9    4   14 1
  10    5    6 am
  11    5   10 2
  12    6    8 1
  13    7    9 1
  14    8    9 1
  15    8   16 1
  16    8   17 1
  17    9   18 1
  18    9   19 1
  19   11   12 2
  20   11   13 2
  21   14   20 1
  22   14   21 1
  23   14   22 1
  24   15   23 1

#	End of record

