#	Name: ASD09080151
#	Creating user name:	WinNT
#	Creation time:	15. 06. 2019 21:20

#	Modifying user name:	WinNT
#	Modification time:	15. 06. 2019 21:20

#	Program:	/corina/corina34_cracker 3.40 0067  02.08.2006

@<TRIPOS>MOLECULE
ASD09080151
  64   66    0    0    0
SMALL
NO_CHARGES


@<TRIPOS>ATOM
   1 C1            -1.5828    -0.5188    -0.2853 C.3     
   2 C2            -1.1632     1.4871   -10.9471 C.ar    
   3 C3            -2.0438     0.5837   -11.5165 C.ar    
   4 C4            -2.4119    -0.5591   -10.8276 C.ar    
   5 C5            -1.9008    -0.8036    -9.5677 C.ar    
   6 C6            -1.0142     0.1028    -8.9902 C.ar    
   7 C7            -0.6427     1.2489    -9.6898 C.ar    
   8 Cl8           -0.7068     2.9183   -11.8171 Cl      
   9 Cl9           -3.5177    -1.6869   -11.5481 Cl      
  10 C10           -0.4631    -0.1546    -7.6367 C.ar    
  11 C11            0.4237     0.7517    -7.0588 C.ar    
  12 C12            0.9332     0.5074    -5.7996 C.ar    
  13 C13            0.5644    -0.6342    -5.1111 C.ar    
  14 C14           -0.3155    -1.5372    -5.6799 C.ar    
  15 C15           -0.8349    -1.3005    -6.9366 C.ar    
  16 C16            1.1237    -0.8952    -3.7363 C.3     
  17 C17            0.2039    -0.2716    -2.6846 C.3     
  18 N18            0.2083     1.1857    -2.8345 N.am    
  19 C19            0.7030    -0.6420    -1.2865 C.3     
  20 C20           -0.1644     0.0526    -0.2348 C.3     
  21 O21           -0.2061     1.4556    -0.5029 O.3     
  22 O22           -2.1207    -0.3429    -1.5975 O.3     
  23 C23            1.3648     1.8702    -2.7322 C.2     
  24 C24            1.3694     3.3692    -2.8863 C.3     
  25 O25            2.4019     1.2797    -2.5160 O.2     
  26 O26            2.7034     3.8594    -2.7374 O.3     
  27 C27            2.8193     5.2778    -2.8666 C.3     
  28 O28            0.6217    -2.0579    -1.1114 O.3     
  29 C29            1.4545    -4.0826    -0.1337 C.ar    
  30 C30            2.2645    -4.8296    -0.9684 C.ar    
  31 C31            2.1895    -6.2098    -0.9506 C.ar    
  32 C32            1.3048    -6.8430    -0.0978 C.ar    
  33 C33            0.4954    -6.0961     0.7375 C.ar    
  34 C34            0.5694    -4.7158     0.7188 C.ar    
  35 C35            1.5406    -2.5781    -0.1486 C.3     
  36 H36           -1.5554    -1.5812    -0.0432 H       
  37 H37           -2.2104     0.0025     0.4375 H       
  38 H38           -2.4452     0.7711   -12.5015 H       
  39 H39           -2.1889    -1.6953    -9.0309 H       
  40 H40            0.0446     1.9543    -9.2464 H       
  41 H41            0.7123     1.6433    -7.5956 H       
  42 H42            1.6208     1.2090    -5.3510 H       
  43 H43           -0.5995    -2.4273    -5.1382 H       
  44 H44           -1.5218    -2.0062    -7.3798 H       
  45 H45            1.1902    -1.9703    -3.5692 H       
  46 H46            2.1170    -0.4533    -3.6582 H       
  47 H47           -0.8101    -0.6477    -2.8199 H       
  48 H48           -0.6211     1.6580    -3.0074 H       
  49 H49            1.7384    -0.3207    -1.1734 H       
  50 H50            0.2601    -0.1157     0.7550 H       
  51 H51            0.6438     1.9029    -0.3906 H       
  52 H52           -3.0198    -0.6828    -1.7028 H       
  53 H53            0.9932     3.6340    -3.8745 H       
  54 H54            0.7312     3.8149    -2.1233 H       
  55 H55            3.8618     5.5701    -2.7408 H       
  56 H56            2.4732     5.5822    -3.8543 H       
  57 H57            2.2112     5.7631    -2.1031 H       
  58 H58            2.9557    -4.3349    -1.6347 H       
  59 H59            2.8218    -6.7934    -1.6033 H       
  60 H60            1.2457    -7.9213    -0.0845 H       
  61 H61           -0.1962    -6.5908     1.4033 H       
  62 H62           -0.0634    -4.1322     1.3709 H       
  63 H63            2.5538    -2.2748    -0.4124 H       
  64 H64            1.2907    -2.1901     0.8389 H       
@<TRIPOS>BOND
   1    1   20 1
   2    1   22 1
   3    1   36 1
   4    1   37 1
   5    2    3 ar
   6    2    8 1
   7    2    7 ar
   8    3    4 ar
   9    3   38 1
  10    4    5 ar
  11    4    9 1
  12    5    6 ar
  13    5   39 1
  14    6    7 ar
  15    6   10 1
  16    7   40 1
  17   10   11 ar
  18   10   15 ar
  19   11   12 ar
  20   11   41 1
  21   12   13 ar
  22   12   42 1
  23   13   14 ar
  24   13   16 1
  25   14   15 ar
  26   14   43 1
  27   15   44 1
  28   16   17 1
  29   16   45 1
  30   16   46 1
  31   17   18 1
  32   17   19 1
  33   17   47 1
  34   18   23 am
  35   18   48 1
  36   19   20 1
  37   19   28 1
  38   19   49 1
  39   20   21 1
  40   20   50 1
  41   21   51 1
  42   22   52 1
  43   23   24 1
  44   23   25 2
  45   24   26 1
  46   24   53 1
  47   24   54 1
  48   26   27 1
  49   27   55 1
  50   27   56 1
  51   27   57 1
  52   28   35 1
  53   29   30 ar
  54   29   34 ar
  55   29   35 1
  56   30   31 ar
  57   30   58 1
  58   31   32 ar
  59   31   59 1
  60   32   33 ar
  61   32   60 1
  62   33   34 ar
  63   33   61 1
  64   34   62 1
  65   35   63 1
  66   35   64 1

#	End of record

