#	Name: ASD04590720
#	Creating user name:	WinNT
#	Creation time:	15. 06. 2019 20:51

#	Modifying user name:	WinNT
#	Modification time:	15. 06. 2019 20:51

#	Program:	/corina/corina34_cracker 3.40 0067  02.08.2006

@<TRIPOS>MOLECULE
ASD04590720
  33   36    0    0    0
SMALL
NO_CHARGES


@<TRIPOS>ATOM
   1 C1            -0.0170     1.4040     0.0098 C.ar    
   2 C2             0.0021    -0.0041     0.0020 C.ar    
   3 C3             1.2347    -0.6533    -0.0136 C.ar    
   4 C4             2.3743     0.1357    -0.0205 C.ar    
   5 N5             2.2647     1.4525    -0.0124 N.ar    
   6 N6             1.1345     2.0599     0.0023 N.ar    
   7 N7            -1.3351     1.8164     0.0301 N.pl3   
   8 C8            -1.3998    -0.4400     0.0139 C.ar    
   9 C9            -2.1800     0.7334     0.0360 C.ar    
  10 C10           -4.0723    -0.5817     0.0559 C.ar    
  11 N11           -3.5040     0.6134     0.0540 N.ar    
  12 C12           -2.0419    -1.6739     0.0142 C.ar    
  13 N13           -3.3645    -1.7036     0.0278 N.ar    
  14 N14           -5.4533    -0.6640     0.0750 N.pl3   
  15 C15           -1.7714     3.2148     0.0439 C.3     
  16 C16           -1.2208     3.9264     1.2922 C.3     
  17 C17           -0.3299     5.0793     0.7853 C.3     
  18 C18           -0.8632     5.3735    -0.6388 C.3     
  19 C19           -1.1958     3.9601    -1.1780 C.3     
  20 Cl20           3.9441    -0.6054    -0.0393 Cl      
  21 H21            1.2998    -1.7313    -0.0196 H       
  22 H22           -1.4713    -2.5908     0.0031 H       
  23 H23           -5.9873     0.1457     0.0867 H       
  24 H24           -5.8875    -1.5314     0.0767 H       
  25 H25           -2.8602     3.2661     0.0347 H       
  26 H26           -2.0424     4.3238     1.8883 H       
  27 H27           -0.6290     3.2313     1.8877 H       
  28 H28           -0.4412     5.9562     1.4231 H       
  29 H29            0.7133     4.7658     0.7448 H       
  30 H30           -1.7601     5.9914    -0.5954 H       
  31 H31           -0.0947     5.8486    -1.2486 H       
  32 H32           -0.2925     3.4659    -1.5356 H       
  33 H33           -1.9391     4.0203    -1.9730 H       
@<TRIPOS>BOND
   1    1    2 ar
   2    1    6 ar
   3    1    7 1
   4    2    3 ar
   5    2    8 1
   6    3    4 ar
   7    3   21 1
   8    4    5 ar
   9    4   20 1
  10    5    6 ar
  11    7    9 1
  12    7   15 1
  13    8    9 ar
  14    8   12 ar
  15    9   11 ar
  16   10   11 ar
  17   10   13 ar
  18   10   14 1
  19   12   13 ar
  20   12   22 1
  21   14   23 1
  22   14   24 1
  23   15   16 1
  24   15   19 1
  25   15   25 1
  26   16   17 1
  27   16   26 1
  28   16   27 1
  29   17   18 1
  30   17   28 1
  31   17   29 1
  32   18   19 1
  33   18   30 1
  34   18   31 1
  35   19   32 1
  36   19   33 1

#	End of record

