#	Name: ASD01903155
#	Creating user name:	WinNT
#	Creation time:	15. 06. 2019 19:54

#	Modifying user name:	WinNT
#	Modification time:	15. 06. 2019 19:54

#	Program:	/corina/corina34_cracker 3.40 0067  02.08.2006

@<TRIPOS>MOLECULE
ASD01903155
  40   42    0    0    0
SMALL
NO_CHARGES


@<TRIPOS>ATOM
   1 C1             1.7343    -1.7054     2.0607 C.ar    
   2 C2             0.7259    -1.1740     1.2724 C.ar    
   3 C3             0.9999    -0.0829     0.4628 C.ar    
   4 N4             2.2009     0.4520     0.4341 N.ar    
   5 C5             3.1943    -0.0265     1.1734 C.ar    
   6 C6             2.9904    -1.1212     2.0102 C.ar    
   7 C7             4.5306     0.6091     1.1080 C.2     
   8 N8             4.7341     1.6686     0.3003 N.am    
   9 O9             5.4436     0.1752     1.7827 O.2     
  10 C10            5.9672     2.3279     0.3091 C.ar    
  11 C11            7.1409     1.6065     0.4859 C.ar    
  12 C12            8.3571     2.2607     0.4942 C.ar    
  13 C13            8.4072     3.6325     0.3266 C.ar    
  14 C14            7.2406     4.3537     0.1507 C.ar    
  15 C15            6.0215     3.7049     0.1353 C.ar    
  16 S16            9.9611     4.4632     0.3377 S.o2    
  17 O17            9.6929     5.8109     0.6998 O.2     
  18 O18           10.8572     3.6285     1.0584 O.2     
  19 N19           10.5091     4.4989    -1.2245 N.am    
  20 C20            9.7598     5.1431    -2.2137 C.ar    
  21 C21            9.7204     4.6276    -3.5037 C.ar    
  22 C22            8.9783     5.2666    -4.4791 C.ar    
  23 C23            8.2755     6.4182    -4.1717 C.ar    
  24 C24            8.3134     6.9333    -2.8878 C.ar    
  25 C25            9.0489     6.2961    -1.9077 C.ar    
  26 Cl26          10.6025     3.1831    -3.8897 Cl      
  27 Cl27           7.3449     7.2187    -5.3992 Cl      
  28 H28            1.5446    -2.5525     2.7032 H       
  29 H29           -0.2638    -1.6062     1.2884 H       
  30 H30            0.2166     0.3334    -0.1531 H       
  31 H31            3.7995    -1.5096     2.6109 H       
  32 H32            4.0251     1.9739    -0.2872 H       
  33 H33            7.1024     0.5352     0.6172 H       
  34 H34            9.2701     1.7004     0.6320 H       
  35 H35            7.2831     5.4250     0.0205 H       
  36 H36            5.1107     4.2688    -0.0021 H       
  37 H37           11.3499     4.0728    -1.4534 H       
  38 H38            8.9473     4.8670    -5.4819 H       
  39 H39            7.7641     7.8325    -2.6511 H       
  40 H40            9.0776     6.6987    -0.9059 H       
@<TRIPOS>BOND
   1    1    2 ar
   2    1    6 ar
   3    1   28 1
   4    2    3 ar
   5    2   29 1
   6    3    4 ar
   7    3   30 1
   8    4    5 ar
   9    5    6 ar
  10    5    7 1
  11    6   31 1
  12    7    8 am
  13    7    9 2
  14    8   10 1
  15    8   32 1
  16   10   11 ar
  17   10   15 ar
  18   11   12 ar
  19   11   33 1
  20   12   13 ar
  21   12   34 1
  22   13   14 ar
  23   13   16 1
  24   14   15 ar
  25   14   35 1
  26   15   36 1
  27   16   17 2
  28   16   18 2
  29   16   19 am
  30   19   20 1
  31   19   37 1
  32   20   21 ar
  33   20   25 ar
  34   21   22 ar
  35   21   26 1
  36   22   23 ar
  37   22   38 1
  38   23   24 ar
  39   23   27 1
  40   24   25 ar
  41   24   39 1
  42   25   40 1

#	End of record

