#	Name: ASD01914475
#	Creating user name:	WinNT
#	Creation time:	15. 06. 2019 20:03

#	Modifying user name:	WinNT
#	Modification time:	15. 06. 2019 20:03

#	Program:	/corina/corina34_cracker 3.40 0067  02.08.2006

@<TRIPOS>MOLECULE
ASD01914475
  52   56    0    0    0
SMALL
NO_CHARGES


@<TRIPOS>ATOM
   1 C1            -0.0187     1.5258     0.0104 C.3     
   2 C2             0.0021    -0.0041     0.0020 C.3     
   3 C3             0.7182    -0.4975    -1.2568 C.3     
   4 C4            -0.0218     0.0093    -2.4963 C.3     
   5 C5            -0.0425     1.5392    -2.4879 C.3     
   6 C6             1.3929     2.0688    -2.4988 C.3     
   7 C7             2.1328     1.5619    -1.2592 C.3     
   8 C8             1.4167     2.0553    -0.0004 C.3     
   9 C9             2.1536     0.0321    -1.2676 C.3     
  10 C10           -0.7587     2.0326    -1.2291 C.3     
  11 C11           -2.3456     5.5666     4.0546 C.ar    
  12 C12           -1.6919     5.1651     2.9056 C.ar    
  13 C13           -1.5369     3.7981     2.6564 C.ar    
  14 C14           -2.0548     2.8945     3.5892 C.ar    
  15 C15           -2.6945     3.3836     4.7117 C.ar    
  16 N16           -2.8191     4.6810     4.9084 N.ar    
  17 C17           -0.8434     3.3203     1.4375 C.2     
  18 O18           -0.4000     4.1205     0.6376 O.2     
  19 N19           -0.7044     1.9982     1.2158 N.am    
  20 C20            1.9370    -6.1899    -3.3083 C.ar    
  21 C21            1.9406    -4.8088    -3.3413 C.ar    
  22 C22            1.3412    -4.1041    -2.2930 C.ar    
  23 C23            0.7616    -4.8363    -1.2523 C.ar    
  24 C24            0.8035    -6.2163    -1.3000 C.ar    
  25 N25            1.3791    -6.8415    -2.3076 N.ar    
  26 C26            1.3211    -2.6228    -2.2848 C.2     
  27 O27            1.8302    -2.0032    -3.1978 O.2     
  28 N28            0.7381    -1.9623    -1.2648 N.am    
  29 H29            0.5293    -0.3651     0.8851 H       
  30 H30           -1.0205    -0.3814     0.0098 H       
  31 H31            0.4884    -0.3422    -3.3931 H       
  32 H32           -1.0444    -0.3679    -2.4886 H       
  33 H33           -0.5697     1.9003    -3.3710 H       
  34 H34            1.9030     1.7172    -3.3956 H       
  35 H35            1.3781     3.1587    -2.4928 H       
  36 H36            3.1554     1.9392    -1.2670 H       
  37 H37            1.4019     3.1452     0.0056 H       
  38 H38            1.9439     1.6943     0.8826 H       
  39 H39            2.6808    -0.3290    -0.3846 H       
  40 H40            2.6638    -0.3194    -2.1644 H       
  41 H41           -1.7813     1.6553    -1.2214 H       
  42 H42           -0.7734     3.1225    -1.2231 H       
  43 H43           -2.4664     6.6203     4.2581 H       
  44 H44           -1.3068     5.8962     2.2102 H       
  45 H45           -1.9566     1.8302     3.4343 H       
  46 H46           -3.0979     2.6936     5.4380 H       
  47 H47           -1.0583     1.3595     1.8542 H       
  48 H48            2.3936    -6.7431    -4.1157 H       
  49 H49            2.4000    -4.2813    -4.1642 H       
  50 H50            0.2886    -4.3305    -0.4235 H       
  51 H51            0.3586    -6.7906    -0.5009 H       
  52 H52            0.3316    -2.4569    -0.5361 H       
@<TRIPOS>BOND
   1    1    2 1
   2    1    8 1
   3    1   10 1
   4    1   19 1
   5    2    3 1
   6    2   29 1
   7    2   30 1
   8    3    4 1
   9    3    9 1
  10    3   28 1
  11    4    5 1
  12    4   31 1
  13    4   32 1
  14    5    6 1
  15    5   10 1
  16    5   33 1
  17    6    7 1
  18    6   34 1
  19    6   35 1
  20    7    8 1
  21    7    9 1
  22    7   36 1
  23    8   37 1
  24    8   38 1
  25    9   39 1
  26    9   40 1
  27   10   41 1
  28   10   42 1
  29   11   12 ar
  30   11   16 ar
  31   11   43 1
  32   12   13 ar
  33   12   44 1
  34   13   14 ar
  35   13   17 1
  36   14   15 ar
  37   14   45 1
  38   15   16 ar
  39   15   46 1
  40   17   18 2
  41   17   19 am
  42   19   47 1
  43   20   21 ar
  44   20   25 ar
  45   20   48 1
  46   21   22 ar
  47   21   49 1
  48   22   23 ar
  49   22   26 1
  50   23   24 ar
  51   23   50 1
  52   24   25 ar
  53   24   51 1
  54   26   27 2
  55   26   28 am
  56   28   52 1

#	End of record

