#	Name: ASD01911761
#	Creating user name:	WinNT
#	Creation time:	15. 06. 2019 19:58

#	Modifying user name:	WinNT
#	Modification time:	15. 06. 2019 19:58

#	Program:	/corina/corina34_cracker 3.40 0067  02.08.2006

@<TRIPOS>MOLECULE
ASD01911761
  41   43    0    0    0
SMALL
NO_CHARGES


@<TRIPOS>ATOM
   1 N1            -0.0178     1.4648     0.0101 N.3     
   2 C2             0.0021    -0.0041     0.0020 C.3     
   3 C3             0.5981    -0.5055     1.2922 C.2     
   4 C4            -0.0787    -0.7823     2.4135 C.2     
   5 S5             2.3050    -0.8354     1.5818 S.3     
   6 C6             1.9265    -1.3194     3.2329 C.2     
   7 N7             0.6393    -1.2087     3.4249 N.2     
   8 C8             2.8766    -1.7673     4.2063 C.1     
   9 C9             3.6554    -2.1345     5.0043 C.1     
  10 C10            4.6055    -2.5824     5.9777 C.ar    
  11 C11            4.1811    -2.9404     7.2607 C.ar    
  12 C12            5.1019    -3.3712     8.1925 C.ar    
  13 C13            6.4430    -3.4496     7.8602 C.ar    
  14 C14            6.8708    -3.0965     6.5923 C.ar    
  15 C15            5.9612    -2.6693     5.6479 C.ar    
  16 C16            1.3458     2.0096     0.0000 C.3     
  17 C17            1.2870     3.5326    -0.1380 C.3     
  18 C18            0.4928     4.1162     1.0339 C.3     
  19 C19           -0.9072     3.4963     1.0504 C.3     
  20 C20           -0.7848     1.9744     1.1540 C.3     
  21 C21           -2.1813     1.3492     1.1506 C.3     
  22 H22           -1.0158    -0.3807    -0.0985 H       
  23 H23            0.6037    -0.3547    -0.8366 H       
  24 H24           -1.1498    -0.6617     2.4813 H       
  25 H25            3.1348    -2.8793     7.5215 H       
  26 H26            4.7756    -3.6478     9.1842 H       
  27 H27            7.1595    -3.7878     8.5941 H       
  28 H28            7.9191    -3.1600     6.3404 H       
  29 H29            6.2965    -2.3945     4.6587 H       
  30 H30            1.8481     1.7485     0.9314 H       
  31 H31            1.8984     1.5899    -0.8405 H       
  32 H32            2.2987     3.9381    -0.1298 H       
  33 H33            0.7970     3.7944    -1.0758 H       
  34 H34            1.0033     3.8878     1.9695 H       
  35 H35            0.4114     5.1968     0.9166 H       
  36 H36           -1.4632     3.8759     1.9077 H       
  37 H37           -1.4317     3.7575     0.1313 H       
  38 H38           -0.2725     1.7134     2.0800 H       
  39 H39           -2.6940     1.6104     0.2249 H       
  40 H40           -2.0943     0.2652     1.2243 H       
  41 H41           -2.7504     1.7267     2.0001 H       
@<TRIPOS>BOND
   1    1    2 1
   2    1   16 1
   3    1   20 1
   4    2    3 1
   5    2   22 1
   6    2   23 1
   7    3    4 2
   8    3    5 1
   9    4    7 1
  10    4   24 1
  11    5    6 1
  12    6    7 2
  13    6    8 1
  14    8    9 3
  15    9   10 1
  16   10   11 ar
  17   10   15 ar
  18   11   12 ar
  19   11   25 1
  20   12   13 ar
  21   12   26 1
  22   13   14 ar
  23   13   27 1
  24   14   15 ar
  25   14   28 1
  26   15   29 1
  27   16   17 1
  28   16   30 1
  29   16   31 1
  30   17   18 1
  31   17   32 1
  32   17   33 1
  33   18   19 1
  34   18   34 1
  35   18   35 1
  36   19   20 1
  37   19   36 1
  38   19   37 1
  39   20   21 1
  40   20   38 1
  41   21   39 1
  42   21   40 1
  43   21   41 1

#	End of record

