#	Name: ASD01231405
#	Creating user name:	WinNT
#	Creation time:	15. 06. 2019 19:15

#	Modifying user name:	WinNT
#	Modification time:	15. 06. 2019 19:15

#	Program:	/corina/corina34_cracker 3.40 0067  02.08.2006

@<TRIPOS>MOLECULE
ASD01231405
  57   59    0    0    0
SMALL
NO_CHARGES


@<TRIPOS>ATOM
   1 C1            -0.0187     1.5258     0.0104 C.3     
   2 C2             0.0021    -0.0041     0.0020 C.3     
   3 C3             0.7421    -0.5109     1.2415 C.3     
   4 S4            -1.6997    -0.6320     0.0149 S.o2    
   5 O5            -1.7138    -2.0386    -0.1864 O.2     
   6 O6            -2.4435    -0.0351     1.0684 O.2     
   7 N7            -2.3782    -0.0153    -1.3642 N.am    
   8 C8            -2.7399    -1.5695    -3.2588 C.3     
   9 C9            -1.8762    -0.4306    -2.6764 C.3     
  10 C10           -2.0651     0.6937    -3.7169 C.3     
  11 C11           -2.3860    -0.0172    -5.0142 C.ar    
  12 C12           -2.3423     0.4379    -6.3216 C.ar    
  13 C13           -2.6847    -0.4032    -7.3620 C.ar    
  14 C14           -3.0725    -1.7039    -7.0988 C.ar    
  15 C15           -3.1168    -2.1594    -5.7958 C.ar    
  16 C16           -2.7738    -1.3175    -4.7510 C.ar    
  17 C17           -2.6351     0.0961    -8.7831 C.3     
  18 C18           -1.2665    -0.1618    -9.3587 C.ar    
  19 C19           -1.0043    -1.3517   -10.0120 C.ar    
  20 C20            0.2510    -1.5883   -10.5399 C.ar    
  21 C21            1.2443    -0.6348   -10.4150 C.ar    
  22 C22            0.9820     0.5551    -9.7627 C.ar    
  23 C23           -0.2749     0.7935    -9.2384 C.ar    
  24 C24            2.0649     1.5942    -9.6261 C.3     
  25 F25            3.2363     1.1296   -10.2337 F       
  26 F26            1.6555     2.7789   -10.2476 F       
  27 F27            2.3082     1.8388    -8.2703 F       
  28 C28            0.5370    -2.8857   -11.2511 C.3     
  29 N29            0.2333    -2.7377   -12.6807 N.3     
  30 C30            0.5008    -3.9859   -13.4077 C.3     
  31 H31            1.0039     1.9031     0.0027 H       
  32 H32           -0.5459     1.8868    -0.8726 H       
  33 H33           -0.5289     1.8773     0.9072 H       
  34 H34            0.5123    -0.3556    -0.8948 H       
  35 H35            0.2319    -0.1594     2.1383 H       
  36 H36            0.7568    -1.6008     1.2356 H       
  37 H37            1.7647    -0.1336     1.2338 H       
  38 H38           -3.1078     0.6209    -1.3031 H       
  39 H39           -2.2825    -2.5363    -3.0488 H       
  40 H40           -3.7477    -1.5292    -2.8455 H       
  41 H41           -0.8300    -0.7301    -2.6152 H       
  42 H42           -2.8913     1.3427    -3.4268 H       
  43 H43           -1.1469     1.2720    -3.8197 H       
  44 H44           -2.0398     1.4539    -6.5280 H       
  45 H45           -3.3410    -2.3629    -7.9112 H       
  46 H46           -3.4198    -3.1756    -5.5909 H       
  47 H47           -3.3839    -0.4266    -9.3782 H       
  48 H48           -2.8404     1.1664    -8.7995 H       
  49 H49           -1.7803    -2.0966   -10.1095 H       
  50 H50            2.2254    -0.8199   -10.8268 H       
  51 H51           -0.4810     1.7249    -8.7319 H       
  52 H52            1.5889    -3.1434   -11.1279 H       
  53 H53           -0.0826    -3.6763   -10.8280 H       
  54 H54           -0.7196    -2.4361   -12.8186 H       
  55 H55           -0.1191    -4.7841   -12.9995 H       
  56 H56            0.2675    -3.8485   -14.4636 H       
  57 H57            1.5525    -4.2511   -13.2995 H       
@<TRIPOS>BOND
   1    1    2 1
   2    1   31 1
   3    1   32 1
   4    1   33 1
   5    2    3 1
   6    2    4 1
   7    2   34 1
   8    3   35 1
   9    3   36 1
  10    3   37 1
  11    4    5 2
  12    4    6 2
  13    4    7 am
  14    7    9 1
  15    7   38 1
  16    8    9 1
  17    8   16 1
  18    8   39 1
  19    8   40 1
  20    9   10 1
  21    9   41 1
  22   10   11 1
  23   10   42 1
  24   10   43 1
  25   11   12 ar
  26   11   16 ar
  27   12   13 ar
  28   12   44 1
  29   13   14 ar
  30   13   17 1
  31   14   15 ar
  32   14   45 1
  33   15   16 ar
  34   15   46 1
  35   17   18 1
  36   17   47 1
  37   17   48 1
  38   18   19 ar
  39   18   23 ar
  40   19   20 ar
  41   19   49 1
  42   20   21 ar
  43   20   28 1
  44   21   22 ar
  45   21   50 1
  46   22   23 ar
  47   22   24 1
  48   23   51 1
  49   24   25 1
  50   24   26 1
  51   24   27 1
  52   28   29 1
  53   28   52 1
  54   28   53 1
  55   29   30 1
  56   29   54 1
  57   30   55 1
  58   30   56 1
  59   30   57 1

#	End of record

