#	Name: ASD08070059
#	Creating user name:	WinNT
#	Creation time:	15. 06. 2019 21:14

#	Modifying user name:	WinNT
#	Modification time:	15. 06. 2019 21:14

#	Program:	/corina/corina34_cracker 3.40 0067  02.08.2006

@<TRIPOS>MOLECULE
ASD08070059
  40   40    0    0    0
SMALL
NO_CHARGES


@<TRIPOS>ATOM
   1 C1            -0.0166     1.3756     0.0096 C.ar    
   2 C2             0.0021    -0.0041     0.0020 C.ar    
   3 C3             1.1701     2.0865     0.0021 C.ar    
   4 C4             2.3828     1.4202    -0.0130 C.ar    
   5 C5             2.4156     0.0413    -0.0212 C.ar    
   6 C6             1.2217    -0.6822    -0.0132 C.ar    
   7 C7             1.2493    -2.1604    -0.0219 C.2     
   8 O8             2.3131    -2.7483    -0.0360 O.2     
   9 C9             0.2429    -4.8201    -1.4639 C.3     
  10 C10            0.1222    -4.3207    -0.0228 C.3     
  11 N11            0.0949    -2.8559    -0.0142 N.am    
  12 C12           -1.1692    -4.8585     0.5969 C.3     
  13 C13           -1.2293    -4.4634     2.0738 C.3     
  14 C14            1.1420     3.5932     0.0099 C.3     
  15 C15            3.6706     2.2029    -0.0211 C.3     
  16 C16            1.5913    -4.3867    -2.0426 C.3     
  17 C17           -2.5206    -5.0012     2.6934 C.3     
  18 H18           -0.9598     1.9016     0.0169 H       
  19 H19           -0.9251    -0.5579     0.0082 H       
  20 H20            3.3627    -0.4775    -0.0337 H       
  21 H21            0.1740    -5.9078    -1.4785 H       
  22 H22           -0.5628    -4.3969    -2.0638 H       
  23 H23            0.9766    -4.6715     0.5561 H       
  24 H24           -0.7540    -2.3867    -0.0030 H       
  25 H25           -2.0268    -4.4367     0.0727 H       
  26 H26           -1.1887    -5.9449     0.5103 H       
  27 H27           -0.3716    -4.8852     2.5979 H       
  28 H28           -1.2097    -3.3770     2.1604 H       
  29 H29            1.1448     3.9513     1.0394 H       
  30 H30            2.0202     3.9757    -0.5102 H       
  31 H31            0.2406     3.9424    -0.4938 H       
  32 H32            3.9909     2.3861     1.0045 H       
  33 H33            4.4384     1.6338    -0.5454 H       
  34 H34            3.5140     3.1549    -0.5284 H       
  35 H35            2.3970    -4.8099    -1.4428 H       
  36 H36            1.6773    -4.7425    -3.0693 H       
  37 H37            1.6603    -3.2990    -2.0281 H       
  38 H38           -3.3783    -4.5794     2.1693 H       
  39 H39           -2.5402    -6.0876     2.6068 H       
  40 H40           -2.5635    -4.7198     3.7456 H       
@<TRIPOS>BOND
   1    1    2 ar
   2    1    3 ar
   3    1   18 1
   4    2    6 ar
   5    2   19 1
   6    3    4 ar
   7    3   14 1
   8    4    5 ar
   9    4   15 1
  10    5    6 ar
  11    5   20 1
  12    6    7 1
  13    7    8 2
  14    7   11 am
  15    9   10 1
  16    9   16 1
  17    9   21 1
  18    9   22 1
  19   10   12 1
  20   10   11 1
  21   10   23 1
  22   11   24 1
  23   12   13 1
  24   12   25 1
  25   12   26 1
  26   13   17 1
  27   13   27 1
  28   13   28 1
  29   14   29 1
  30   14   30 1
  31   14   31 1
  32   15   32 1
  33   15   33 1
  34   15   34 1
  35   16   35 1
  36   16   36 1
  37   16   37 1
  38   17   38 1
  39   17   39 1
  40   17   40 1

#	End of record

