#	Name: ASD01940385
#	Creating user name:	WinNT
#	Creation time:	15. 06. 2019 20:12

#	Modifying user name:	WinNT
#	Modification time:	15. 06. 2019 20:12

#	Program:	/corina/corina34_cracker 3.40 0067  02.08.2006

@<TRIPOS>MOLECULE
ASD01940385
  42   44    0    0    0
SMALL
NO_CHARGES


@<TRIPOS>ATOM
   1 N1             1.2241     2.1277    -2.3851 N.pl3   
   2 N2             1.5657     0.9171    -2.9996 N.2     
   3 C3             2.3449     0.2307    -2.2148 C.2     
   4 C4             2.5549     0.9717    -1.0278 C.ar    
   5 C5             3.2922     0.7310     0.1455 C.ar    
   6 C6             3.2937     1.6928     1.1618 C.ar    
   7 C7             2.5645     2.8830     1.0048 C.ar    
   8 C8             1.8512     3.1155    -0.1297 C.ar    
   9 C9             1.8331     2.1716    -1.1603 C.ar    
  10 C10            4.0592     1.4570     2.3961 C.2     
  11 O11            4.7705     0.4749     2.4925 O.2     
  12 N12            3.9724     2.3291     3.4200 N.am    
  13 O13            4.7091     2.1022     4.6078 O.3     
  14 C14            4.5222     3.1053     5.6082 C.3     
  15 C15            5.3610     2.7595     6.8402 C.3     
  16 C16            6.8225     2.5751     6.4267 C.3     
  17 O17            4.8745     1.5489     7.4231 O.3     
  18 N18            4.0080    -0.4446     0.2934 N.pl3   
  19 C19            3.4362    -1.5323     0.9621 C.ar    
  20 C20            4.1050    -2.7515     1.0095 C.ar    
  21 C21            3.5366    -3.8239     1.6712 C.ar    
  22 C22            2.3042    -3.6848     2.2855 C.ar    
  23 C23            1.6377    -2.4737     2.2391 C.ar    
  24 C24            2.2031    -1.3961     1.5846 C.ar    
  25 F25            5.3078    -2.8871     0.4094 F       
  26 Br26           1.5297    -5.1539     3.1898 Br      
  27 H27            0.6572     2.8178    -2.7637 H       
  28 H28            2.7612    -0.7417    -2.4329 H       
  29 H29            2.5701     3.6211     1.7932 H       
  30 H30            1.2951     4.0353    -0.2349 H       
  31 H31            3.4052     3.1123     3.3432 H       
  32 H32            4.8351     4.0728     5.2156 H       
  33 H33            3.4692     3.1494     5.8863 H       
  34 H34            5.2885     3.5679     7.5677 H       
  35 H35            7.1936     3.4985     5.9820 H       
  36 H36            7.4200     2.3287     7.3043 H       
  37 H37            6.8950     1.7667     5.6991 H       
  38 H38            5.3606     1.2685     8.2106 H       
  39 H39            4.9060    -0.5141    -0.0665 H       
  40 H40            4.0544    -4.7709     1.7085 H       
  41 H41            0.6758    -2.3690     2.7189 H       
  42 H42            1.6838    -0.4496     1.5536 H       
@<TRIPOS>BOND
   1    1    2 1
   2    1    9 1
   3    1   27 1
   4    2    3 2
   5    3    4 1
   6    3   28 1
   7    4    5 ar
   8    4    9 ar
   9    5    6 ar
  10    5   18 1
  11    6    7 ar
  12    6   10 1
  13    7    8 ar
  14    7   29 1
  15    8    9 ar
  16    8   30 1
  17   10   11 2
  18   10   12 am
  19   12   13 1
  20   12   31 1
  21   13   14 1
  22   14   15 1
  23   14   32 1
  24   14   33 1
  25   15   16 1
  26   15   17 1
  27   15   34 1
  28   16   35 1
  29   16   36 1
  30   16   37 1
  31   17   38 1
  32   18   19 1
  33   18   39 1
  34   19   20 ar
  35   19   24 ar
  36   20   21 ar
  37   20   25 1
  38   21   22 ar
  39   21   40 1
  40   22   23 ar
  41   22   26 1
  42   23   24 ar
  43   23   41 1
  44   24   42 1

#	End of record

