#	Name: ASD01410763
#	Creating user name:	WinNT
#	Creation time:	15. 06. 2019 19:18

#	Modifying user name:	WinNT
#	Modification time:	15. 06. 2019 19:18

#	Program:	/corina/corina34_cracker 3.40 0067  02.08.2006

@<TRIPOS>MOLECULE
ASD01410763
 110  116    0    0    0
SMALL
NO_CHARGES


@<TRIPOS>ATOM
   1 C1             3.1632     1.8018    -3.4798 C.3     
   2 C2             3.6048    -2.0110    -3.4831 C.3     
   3 C3             3.2414    -0.6266    -4.0655 C.3     
   4 N4             4.4318    -0.2563    -4.8492 N.am    
   5 C5             4.8994    -1.4907    -5.4994 C.3     
   6 C6             4.4035    -2.6673    -4.6352 C.3     
   7 O7             4.4194    -1.8720    -2.3172 O.3     
   8 C8             4.3217    -1.5921    -6.8876 C.2     
   9 O9             3.5878    -0.7210    -7.3041 O.2     
  10 N10            4.6207    -2.6507    -7.6662 N.am    
  11 C11            3.9801    -2.8016    -8.9750 C.3     
  12 C12            2.4921    -3.0388    -8.9469 C.2     
  13 N13            1.8600    -3.2151    -7.7697 N.am    
  14 O14            1.8635    -3.0710    -9.9836 O.2     
  15 S15            0.2103    -3.3530    -7.7283 S.o2    
  16 C16           -0.1379    -4.8922    -8.6228 C.3     
  17 C17            4.5424    -1.9787   -10.1359 C.3     
  18 C18            4.7843    -3.4892   -10.0802 C.3     
  19 C19           -1.6051    -5.2517    -8.8657 C.3     
  20 C20           -0.7320    -4.7739   -10.0277 C.3     
  21 O21           -0.0947    -3.4985    -6.3480 O.2     
  22 O22           -0.2538    -2.2312    -8.4668 O.2     
  23 C23            3.5660    -1.4679   -11.1639 C.2     
  24 C24            3.4465    -0.1798   -11.3705 C.2     
  25 C25            4.4371    -2.9149    -1.4506 C.ar    
  26 C26            5.1778    -2.8467    -0.2475 C.ar    
  27 C27            3.7333    -4.0607    -1.7145 C.ar    
  28 C28            3.7676    -5.1242    -0.8025 C.ar    
  29 N29            4.4674    -5.0523     0.3173 N.ar    
  30 C30            5.1692    -3.9585     0.6306 C.ar    
  31 C31            3.0037    -6.3542    -1.0987 C.2     
  32 C32            5.9092    -3.8946     1.8232 C.ar    
  33 C33            6.6229    -2.7561     2.1204 C.ar    
  34 C34            6.6195    -1.6624     1.2492 C.ar    
  35 C35            5.9157    -1.7013     0.0850 C.ar    
  36 C36            5.9209    -5.0657     2.7716 C.3     
  37 O37            7.3385    -2.6939     3.2734 O.3     
  38 N38            2.9497    -7.4115    -0.3400 N.2     
  39 C39            2.2181    -8.4136    -0.7634 C.2     
  40 C40            1.6044    -8.2319    -1.9399 C.2     
  41 S41            2.0137    -6.6227    -2.5311 S.3     
  42 C42            2.0770    -9.6906     0.0242 C.3     
  43 C43            0.8117    -9.6236     0.8818 C.3     
  44 C44            1.9783   -10.8755    -0.9387 C.3     
  45 C45            3.0126     0.3778    -2.9451 C.3     
  46 C46            4.6009     2.0360    -3.9441 C.3     
  47 C47            5.0000     0.9564    -4.9182 C.2     
  48 C48            4.6995     3.4011    -4.6280 C.3     
  49 C49            3.6935     3.4688    -5.7788 C.3     
  50 C50            4.3887     4.5034    -3.6135 C.3     
  51 O51            5.8368     1.1853    -5.7657 O.2     
  52 C52            8.0584    -1.4856     3.5257 C.3     
  53 C53            8.7979    -1.6018     4.8601 C.3     
  54 O54            7.8540    -1.8220     5.9102 O.3     
  55 C55            8.4229    -1.7839     7.2205 C.3     
  56 O56            9.7125    -2.6983     4.8040 O.3     
  57 C57           10.7936    -2.6016     5.7334 C.3     
  58 H58            2.4836     1.9467    -4.3196 H       
  59 H59            2.9175     2.5124    -2.6907 H       
  60 H60            2.7051    -2.5836    -3.2578 H       
  61 H61            2.3667    -0.7016    -4.7115 H       
  62 H62            5.9883    -1.4969    -5.5474 H       
  63 H63            5.2494    -3.2283    -4.2379 H       
  64 H64            3.7563    -3.3205    -5.2204 H       
  65 H65            5.2601    -3.3128    -7.3600 H       
  66 H66            2.3714    -3.2613    -6.9467 H       
  67 H67            0.5569    -5.7113    -8.4371 H       
  68 H68            5.3891    -1.3251    -9.9257 H       
  69 H69            5.7902    -3.8291    -9.8336 H       
  70 H70            4.2372    -4.1129   -10.7871 H       
  71 H71           -1.8755    -6.3073    -8.8402 H       
  72 H72           -2.3611    -4.5633    -8.4880 H       
  73 H73           -0.9137    -3.7712   -10.4145 H       
  74 H74           -0.4280    -5.5152   -10.7668 H       
  75 H75            2.9649    -2.1637   -11.7303 H       
  76 H76            4.0477     0.5160   -10.8041 H       
  77 H77            2.7468     0.1863   -12.1072 H       
  78 H78            3.1538    -4.1437    -2.6221 H       
  79 H79            7.1858    -0.7780     1.5010 H       
  80 H80            5.9214    -0.8498    -0.5792 H       
  81 H81            6.7421    -5.7343     2.5132 H       
  82 H82            6.0529    -4.7056     3.7919 H       
  83 H83            4.9763    -5.6042     2.6957 H       
  84 H84            0.9661    -8.9465    -2.4383 H       
  85 H85            2.9466    -9.8178     0.6690 H       
  86 H86           -0.0579    -9.4964     0.2370 H       
  87 H87            0.7096   -10.5472     1.4515 H       
  88 H88            0.8819    -8.7795     1.5678 H       
  89 H89            1.8762   -11.7991    -0.3689 H       
  90 H90            1.1087   -10.7483    -1.5834 H       
  91 H91            2.8798   -10.9232    -1.5496 H       
  92 H92            3.7431     0.2096    -2.1538 H       
  93 H93            2.0084     0.2473    -2.5418 H       
  94 H94            5.2688     2.0128    -3.0830 H       
  95 H95            5.7077     3.5401    -5.0182 H       
  96 H96            2.6852     3.3298    -5.3887 H       
  97 H97            3.7637     4.4413    -6.2660 H       
  98 H98            3.9149     2.6835    -6.5016 H       
  99 H99            3.4070     4.3266    -3.1741 H       
 100 H100           5.1446     4.4980    -2.8282 H       
 101 H101           4.3932     5.4710    -4.1154 H       
 102 H102           8.7784    -1.3176     2.7248 H       
 103 H103           7.3608    -0.6492     3.5686 H       
 104 H104           9.3470    -0.6801     5.0526 H       
 105 H105           7.6269    -1.6939     7.9597 H       
 106 H106           8.9834    -2.7013     7.4001 H       
 107 H107           9.0922    -0.9274     7.3012 H       
 108 H108          10.3975    -2.4429     6.7364 H       
 109 H109          11.3735    -3.5243     5.7135 H       
 110 H110          11.4346    -1.7637     5.4592 H       
@<TRIPOS>BOND
   1    1   45 1
   2    1   46 1
   3    1   58 1
   4    1   59 1
   5    2    3 1
   6    2    7 1
   7    2    6 1
   8    2   60 1
   9    3    4 1
  10    3   45 1
  11    3   61 1
  12    4    5 1
  13    4   47 am
  14    5    6 1
  15    5    8 1
  16    5   62 1
  17    6   63 1
  18    6   64 1
  19    7   25 1
  20    8    9 2
  21    8   10 am
  22   10   11 1
  23   10   65 1
  24   11   12 1
  25   11   17 1
  26   11   18 1
  27   12   13 am
  28   12   14 2
  29   13   15 am
  30   13   66 1
  31   15   16 1
  32   15   21 2
  33   15   22 2
  34   16   19 1
  35   16   20 1
  36   16   67 1
  37   17   18 1
  38   17   23 1
  39   17   68 1
  40   18   69 1
  41   18   70 1
  42   19   20 1
  43   19   71 1
  44   19   72 1
  45   20   73 1
  46   20   74 1
  47   23   24 2
  48   23   75 1
  49   24   76 1
  50   24   77 1
  51   25   26 ar
  52   25   27 ar
  53   26   30 ar
  54   26   35 ar
  55   27   28 ar
  56   27   78 1
  57   28   29 ar
  58   28   31 1
  59   29   30 ar
  60   30   32 ar
  61   31   38 2
  62   31   41 1
  63   32   33 ar
  64   32   36 1
  65   33   34 ar
  66   33   37 1
  67   34   35 ar
  68   34   79 1
  69   35   80 1
  70   36   81 1
  71   36   82 1
  72   36   83 1
  73   37   52 1
  74   38   39 1
  75   39   40 2
  76   39   42 1
  77   40   41 1
  78   40   84 1
  79   42   43 1
  80   42   44 1
  81   42   85 1
  82   43   86 1
  83   43   87 1
  84   43   88 1
  85   44   89 1
  86   44   90 1
  87   44   91 1
  88   45   92 1
  89   45   93 1
  90   46   47 1
  91   46   48 1
  92   46   94 1
  93   47   51 2
  94   48   49 1
  95   48   50 1
  96   48   95 1
  97   49   96 1
  98   49   97 1
  99   49   98 1
 100   50   99 1
 101   50  100 1
 102   50  101 1
 103   52   53 1
 104   52  102 1
 105   52  103 1
 106   53   54 1
 107   53   56 1
 108   53  104 1
 109   54   55 1
 110   55  105 1
 111   55  106 1
 112   55  107 1
 113   56   57 1
 114   57  108 1
 115   57  109 1
 116   57  110 1

#	End of record

