#	Name: ASD00431191
#	Creating user name:	WinNT
#	Creation time:	15. 06. 2019 18:35

#	Modifying user name:	WinNT
#	Modification time:	15. 06. 2019 18:35

#	Program:	/corina/corina34_cracker 3.40 0067  02.08.2006

@<TRIPOS>MOLECULE
ASD00431191
  54   56    0    0    0
SMALL
NO_CHARGES


@<TRIPOS>ATOM
   1 C1            -0.0009     1.3447     0.3339 C.2     
   2 C2             0.0155    -0.1619     0.3631 C.3     
   3 O3             1.0428     1.9624     0.3200 O.2     
   4 N4            -1.1753     2.0057     0.3176 N.am    
   5 C5            -1.1912     3.4704     0.2892 C.3     
   6 C6            -1.0667     3.9538    -1.1571 C.3     
   7 O7            -3.7154     3.5004     0.6180 O.3     
   8 N8            -4.5656     4.0979     1.2361 N.2     
   9 C9            -4.0392     5.0388     1.9855 C.2     
  10 C10           -2.6325     4.9779     1.7641 C.2     
  11 C11           -2.4861     3.9701     0.8762 C.2     
  12 S12           -4.1757     6.5865     4.4213 S.3     
  13 C13           -5.6138     7.4897     4.6169 C.2     
  14 N14           -6.4020     7.3066     3.6025 N.2     
  15 C15           -5.9791     6.5015     2.6527 C.2     
  16 C16           -4.7587     5.9709     2.8769 C.2     
  17 O17           -5.8910     8.2830     5.6788 O.3     
  18 C18           -7.0334     9.0195     5.6445 C.ar    
  19 C19           -8.2676     8.3862     5.6567 C.ar    
  20 C20           -9.4281     9.1344     5.6218 C.ar    
  21 C21           -9.3594    10.5190     5.5745 C.ar    
  22 C22           -8.1254    11.1523     5.5623 C.ar    
  23 C23           -6.9649    10.4044     5.6030 C.ar    
  24 O24          -10.5019    11.2554     5.5397 O.3     
  25 C25          -11.7321    10.5390     5.4162 C.3     
  26 C26          -12.3149    10.2827     6.8075 C.3     
  27 C27          -12.7226    11.3644     4.5925 C.3     
  28 C28           -1.5580     5.8380     2.3780 C.3     
  29 C29           -1.0635     5.1897     3.6726 C.3     
  30 H30            1.0470    -0.5140     0.3681 H       
  31 H31           -0.4928    -0.5134     1.2610 H       
  32 H32           -0.4960    -0.5480    -0.5186 H       
  33 H33           -2.0100     1.5117     0.3247 H       
  34 H34           -0.3552     3.8542     0.8738 H       
  35 H35           -1.9028     3.5699    -1.7417 H       
  36 H36           -1.0786     5.0435    -1.1782 H       
  37 H37           -0.1302     3.5923    -1.5817 H       
  38 H38           -6.5592     6.2834     1.7683 H       
  39 H39           -8.3211     7.3081     5.6931 H       
  40 H40          -10.3889     8.6413     5.6309 H       
  41 H41           -8.0721    12.2303     5.5251 H       
  42 H42           -6.0042    10.8977     5.5980 H       
  43 H43          -11.5497     9.5870     4.9177 H       
  44 H44          -13.2533     9.7362     6.7133 H       
  45 H45          -11.6092     9.6946     7.3943 H       
  46 H46          -12.4973    11.2347     7.3060 H       
  47 H47          -12.3075    11.5470     3.6014 H       
  48 H48          -13.6610    10.8179     4.4984 H       
  49 H49          -12.9050    12.3164     5.0910 H       
  50 H50           -0.7268     5.9346     1.6795 H       
  51 H51           -1.9643     6.8251     2.5981 H       
  52 H52           -1.8946     5.0930     4.3711 H       
  53 H53           -0.6571     4.2025     3.4525 H       
  54 H54           -0.2863     5.8118     4.1166 H       
@<TRIPOS>BOND
   1    1    2 1
   2    1    3 2
   3    1    4 am
   4    2   30 1
   5    2   31 1
   6    2   32 1
   7    4    5 1
   8    4   33 1
   9    5    6 1
  10    5   11 1
  11    5   34 1
  12    6   35 1
  13    6   36 1
  14    6   37 1
  15    7    8 1
  16    7   11 1
  17    8    9 2
  18    9   10 1
  19    9   16 1
  20   10   11 2
  21   10   28 1
  22   12   13 1
  23   12   16 1
  24   13   14 2
  25   13   17 1
  26   14   15 1
  27   15   16 2
  28   15   38 1
  29   17   18 1
  30   18   19 ar
  31   18   23 ar
  32   19   20 ar
  33   19   39 1
  34   20   21 ar
  35   20   40 1
  36   21   22 ar
  37   21   24 1
  38   22   23 ar
  39   22   41 1
  40   23   42 1
  41   24   25 1
  42   25   26 1
  43   25   27 1
  44   25   43 1
  45   26   44 1
  46   26   45 1
  47   26   46 1
  48   27   47 1
  49   27   48 1
  50   27   49 1
  51   28   29 1
  52   28   50 1
  53   28   51 1
  54   29   52 1
  55   29   53 1
  56   29   54 1

#	End of record

