#	Name: ASD04882183
#	Creating user name:	WinNT
#	Creation time:	15. 06. 2019 20:54

#	Modifying user name:	WinNT
#	Modification time:	15. 06. 2019 20:54

#	Program:	/corina/corina34_cracker 3.40 0067  02.08.2006

@<TRIPOS>MOLECULE
ASD04882183
  73   77    0    0    0
SMALL
NO_CHARGES


@<TRIPOS>ATOM
   1 C1            -0.1618     1.4808     0.4538 C.2     
   2 C2            -0.1422     0.0094     0.4883 C.2     
   3 N3            -1.1637    -0.6908    -0.0433 N.am    
   4 C4            -1.0913    -2.0877    -0.1181 C.ar    
   5 C5            -2.2496    -2.8568     0.0250 C.ar    
   6 C6            -2.1791    -4.2432    -0.0489 C.ar    
   7 C7            -0.9684    -4.8639    -0.2628 C.ar    
   8 C8             0.1937    -4.1008    -0.4068 C.ar    
   9 C9             0.1248    -2.7065    -0.3390 C.ar    
  10 N10           -3.4756    -2.2335     0.2423 N.3     
  11 C11           -3.5002    -1.5609     1.5487 C.3     
  12 C12           -4.5822    -3.1935     0.1265 C.3     
  13 C13           -5.9131    -2.4561     0.2927 C.3     
  14 N14           -5.9377    -1.7835     1.5990 N.3     
  15 C15           -4.8311    -0.8236     1.7149 C.3     
  16 C16           -7.1676    -1.1583     1.8170 C.ar    
  17 C17           -7.9521    -1.5252     2.9029 C.ar    
  18 C18           -7.6063    -0.1641     0.9515 C.ar    
  19 C19           -8.8226     0.4519     1.1699 C.ar    
  20 C20           -9.6037     0.0805     2.2491 C.ar    
  21 C21           -9.1678    -0.9049     3.1155 C.ar    
  22 C22            1.4905    -4.7660    -0.6358 C.2     
  23 N23            1.5551    -6.1103    -0.7064 N.am    
  24 O24            2.5010    -4.1013    -0.7610 O.2     
  25 O25            0.7960    -0.5746     0.9968 O.2     
  26 C26           -7.4777    -2.5991     3.8477 C.3     
  27 C27            2.8428    -6.7709    -0.9339 C.3     
  28 C28            2.6388    -8.2868    -0.9710 C.3     
  29 C29            3.9837    -8.9766    -1.2086 C.3     
  30 N30            3.7884   -10.4281    -1.2442 N.am    
  31 C31            3.4943   -11.1946    -2.4607 C.3     
  32 C32            2.9501   -12.5544    -1.9697 C.3     
  33 C33            3.5938   -12.6640    -0.5680 C.3     
  34 C34            3.8612   -11.2298    -0.1676 C.2     
  35 O35            4.0993   -10.8566     0.9615 O.2     
  36 S36            1.0896     2.5366     1.1019 S.3     
  37 N37           -1.1076     2.2153    -0.0676 N.2     
  38 C38           -0.9318     3.5088     0.0055 C.2     
  39 C39            0.2003     3.9111     0.6058 C.2     
  40 Br40          -2.1904     4.7355    -0.6925 Br      
  41 H41           -1.9490    -0.2275    -0.3742 H       
  42 H42           -3.0757    -4.8350     0.0620 H       
  43 H43           -0.9169    -5.9412    -0.3190 H       
  44 H44            1.0211    -2.1143    -0.4499 H       
  45 H45           -3.3934    -2.3017     2.3412 H       
  46 H46           -2.6790    -0.8464     1.6054 H       
  47 H47           -4.5499    -3.6691    -0.8537 H       
  48 H48           -4.4878    -3.9528     0.9028 H       
  49 H49           -6.0199    -1.7154    -0.4998 H       
  50 H50           -6.7343    -3.1707     0.2360 H       
  51 H51           -4.8634    -0.3479     2.6951 H       
  52 H52           -4.9255    -0.0643     0.9386 H       
  53 H53           -6.9965     0.1269     0.1089 H       
  54 H54           -9.1642     1.2249     0.4974 H       
  55 H55          -10.5544     0.5644     2.4180 H       
  56 H56           -9.7802    -1.1926     3.9572 H       
  57 H57            0.7489    -6.6405    -0.6066 H       
  58 H58           -6.8986    -2.1456     4.6520 H       
  59 H59           -8.3384    -3.1191     4.2683 H       
  60 H60           -6.8530    -3.3095     3.3061 H       
  61 H61            3.2595    -6.4370    -1.8841 H       
  62 H62            3.5293    -6.5163    -0.1265 H       
  63 H63            2.2220    -8.6207    -0.0208 H       
  64 H64            1.9522    -8.5414    -1.7784 H       
  65 H65            4.4004    -8.6427    -2.1588 H       
  66 H66            4.6702    -8.7220    -0.4012 H       
  67 H67            2.7413   -10.6803    -3.0578 H       
  68 H68            4.4038   -11.3405    -3.0436 H       
  69 H69            1.8626   -12.5368    -1.8992 H       
  70 H70            3.2846   -13.3651    -2.6169 H       
  71 H71            2.9048   -13.1363     0.1323 H       
  72 H72            4.5286   -13.2221    -0.6200 H       
  73 H73            0.5015     4.9380     0.7508 H       
@<TRIPOS>BOND
   1    1    2 1
   2    1   36 1
   3    1   37 2
   4    2    3 am
   5    2   25 2
   6    3    4 1
   7    3   41 1
   8    4    5 ar
   9    4    9 ar
  10    5    6 ar
  11    5   10 1
  12    6    7 ar
  13    6   42 1
  14    7    8 ar
  15    7   43 1
  16    8    9 ar
  17    8   22 1
  18    9   44 1
  19   10   11 1
  20   10   12 1
  21   11   15 1
  22   11   45 1
  23   11   46 1
  24   12   13 1
  25   12   47 1
  26   12   48 1
  27   13   14 1
  28   13   49 1
  29   13   50 1
  30   14   15 1
  31   14   16 1
  32   15   51 1
  33   15   52 1
  34   16   17 ar
  35   16   18 ar
  36   17   26 1
  37   17   21 ar
  38   18   19 ar
  39   18   53 1
  40   19   20 ar
  41   19   54 1
  42   20   21 ar
  43   20   55 1
  44   21   56 1
  45   22   23 am
  46   22   24 2
  47   23   27 1
  48   23   57 1
  49   26   58 1
  50   26   59 1
  51   26   60 1
  52   27   28 1
  53   27   61 1
  54   27   62 1
  55   28   29 1
  56   28   63 1
  57   28   64 1
  58   29   30 1
  59   29   65 1
  60   29   66 1
  61   30   31 1
  62   30   34 am
  63   31   32 1
  64   31   67 1
  65   31   68 1
  66   32   33 1
  67   32   69 1
  68   32   70 1
  69   33   34 1
  70   33   71 1
  71   33   72 1
  72   34   35 2
  73   36   39 1
  74   37   38 1
  75   38   39 2
  76   38   40 1
  77   39   73 1

#	End of record

