#	Name: ASD01815607
#	Creating user name:	WinNT
#	Creation time:	15. 06. 2019 19:33

#	Modifying user name:	WinNT
#	Modification time:	15. 06. 2019 19:33

#	Program:	/corina/corina34_cracker 3.40 0067  02.08.2006

@<TRIPOS>MOLECULE
ASD01815607
  38   40    0    0    0
SMALL
NO_CHARGES


@<TRIPOS>ATOM
   1 C1            -0.0732     1.3184     0.1665 C.ar    
   2 C2            -0.0302    -0.0683     0.1551 C.ar    
   3 C3             1.1758    -0.7350     0.0895 C.ar    
   4 C4             2.3677    -0.0131     0.0334 C.ar    
   5 C5             2.3192     1.3908     0.0447 C.ar    
   6 C6             1.0921     2.0506     0.1118 C.ar    
   7 N7             3.5799    -0.6667    -0.0320 N.pl3   
   8 C8             4.7508    -0.0198    -0.0867 C.2     
   9 C9             4.8307     1.3584    -0.0821 C.2     
  10 C10            3.5869     2.1424    -0.0152 C.2     
  11 O11            3.6037     3.3607    -0.0088 O.2     
  12 C12            6.1358     2.0314    -0.1429 C.2     
  13 O13            7.1568     1.3739    -0.1978 O.2     
  14 O14            6.2007     3.3779    -0.1377 O.3     
  15 C15            3.5871    -2.1316    -0.0416 C.3     
  16 C16            3.7172    -2.6426     1.3702 C.ar    
  17 C17            2.5950    -2.7640     2.1662 C.ar    
  18 C18            2.7154    -3.2349     3.4658 C.ar    
  19 C19            3.9631    -3.5826     3.9622 C.ar    
  20 C20            5.0826    -3.4593     3.1619 C.ar    
  21 C21            4.9593    -2.9949     1.8656 C.ar    
  22 F22            1.2022    -2.0857     0.0801 F       
  23 O23            1.6128    -3.3548     4.2512 O.3     
  24 C24            1.8119    -3.8463     5.5782 C.3     
  25 F25            2.3744    -5.1260     5.5220 F       
  26 F26            2.6739    -2.9879     6.2690 F       
  27 H27           -1.0253     1.8261     0.2141 H       
  28 H28           -0.9505    -0.6318     0.1984 H       
  29 H29            1.0559     3.1300     0.1201 H       
  30 H30            5.6633    -0.5954    -0.1357 H       
  31 H31            7.0814     3.7751    -0.1791 H       
  32 H32            2.6563    -2.4967    -0.4758 H       
  33 H33            4.4291    -2.4870    -0.6356 H       
  34 H34            1.6247    -2.4922     1.7776 H       
  35 H35            4.0595    -3.9491     4.9736 H       
  36 H36            6.0543    -3.7300     3.5479 H       
  37 H37            5.8355    -2.8992     1.2416 H       
  38 H38            0.8538    -3.8930     6.0959 H       
@<TRIPOS>BOND
   1    1    2 ar
   2    1    6 ar
   3    1   27 1
   4    2    3 ar
   5    2   28 1
   6    3    4 ar
   7    3   22 1
   8    4    5 ar
   9    4    7 1
  10    5    6 ar
  11    5   10 1
  12    6   29 1
  13    7    8 1
  14    7   15 1
  15    8    9 2
  16    8   30 1
  17    9   10 1
  18    9   12 1
  19   10   11 2
  20   12   13 2
  21   12   14 1
  22   14   31 1
  23   15   16 1
  24   15   32 1
  25   15   33 1
  26   16   17 ar
  27   16   21 ar
  28   17   18 ar
  29   17   34 1
  30   18   19 ar
  31   18   23 1
  32   19   20 ar
  33   19   35 1
  34   20   21 ar
  35   20   36 1
  36   21   37 1
  37   23   24 1
  38   24   25 1
  39   24   26 1
  40   24   38 1

#	End of record

