#	Name: ASD06020122
#	Creating user name:	WinNT
#	Creation time:	15. 06. 2019 21:04

#	Modifying user name:	WinNT
#	Modification time:	15. 06. 2019 21:04

#	Program:	/corina/corina34_cracker 3.40 0067  02.08.2006

@<TRIPOS>MOLECULE
ASD06020122
  35   38    0    0    0
SMALL
NO_CHARGES


@<TRIPOS>ATOM
   1 C1            -0.0187     1.5258     0.0104 C.3     
   2 C2             0.0021    -0.0041     0.0020 C.3     
   3 C3             1.3165     0.7789    -0.0063 C.3     
   4 C4            -0.4420     2.2229    -1.2568 C.2     
   5 O5            -0.7498     1.5724    -2.2330 O.2     
   6 N6            -0.4784     3.5693    -1.3053 N.am    
   7 C7            -0.8700     4.2142    -2.4776 C.ar    
   8 C8            -0.9065     5.6115    -2.5239 C.ar    
   9 C9            -1.3004     6.2532    -3.7048 C.ar    
  10 C10           -1.6450     5.4260    -4.8038 C.ar    
  11 C11           -1.5812     4.0746    -4.6713 C.ar    
  12 N12           -1.1994     3.5022    -3.5406 N.ar    
  13 S13           -0.5347     6.8426    -1.3222 S.3     
  14 C14           -0.9306     8.1061    -2.4803 C.2     
  15 N15           -1.2891     7.5826    -3.6076 N.2     
  16 C16           -0.8635     9.5555    -2.2052 C.ar    
  17 C17           -0.4625    10.0143    -0.9505 C.ar    
  18 C18           -0.4011    11.3715    -0.6990 C.ar    
  19 C19           -0.7354    12.2836    -1.6858 C.ar    
  20 C20           -1.1345    11.8496    -2.9336 C.ar    
  21 C21           -1.1981    10.4840    -3.2098 C.ar    
  22 C22           -1.6059    10.0289    -4.5049 C.1     
  23 N23           -1.9294     9.6678    -5.5323 N.1     
  24 Cl24          -0.0414     8.8805     0.2949 Cl      
  25 H25           -0.3072     2.0201     0.9381 H       
  26 H26           -0.2728    -0.5162     0.9241 H       
  27 H27           -0.2904    -0.5063    -0.9201 H       
  28 H28            1.8888     0.7918    -0.9339 H       
  29 H29            1.9064     0.7818     0.9103 H       
  30 H30           -0.2322     4.0896    -0.5246 H       
  31 H31           -1.9564     5.8665    -5.7394 H       
  32 H32           -1.8455     3.4512    -5.5127 H       
  33 H33           -0.0906    11.7234     0.2737 H       
  34 H34           -0.6839    13.3421    -1.4774 H       
  35 H35           -1.3935    12.5676    -3.6976 H       
@<TRIPOS>BOND
   1    1    2 1
   2    1    3 1
   3    1    4 1
   4    1   25 1
   5    2    3 1
   6    2   26 1
   7    2   27 1
   8    3   28 1
   9    3   29 1
  10    4    5 2
  11    4    6 am
  12    6    7 1
  13    6   30 1
  14    7    8 ar
  15    7   12 ar
  16    8    9 ar
  17    8   13 1
  18    9   10 ar
  19    9   15 1
  20   10   11 ar
  21   10   31 1
  22   11   12 ar
  23   11   32 1
  24   13   14 1
  25   14   15 2
  26   14   16 1
  27   16   17 ar
  28   16   21 ar
  29   17   18 ar
  30   17   24 1
  31   18   19 ar
  32   18   33 1
  33   19   20 ar
  34   19   34 1
  35   20   21 ar
  36   20   35 1
  37   21   22 1
  38   22   23 3

#	End of record

