#	Name: ASD03240392
#	Creating user name:	WinNT
#	Creation time:	15. 06. 2019 20:34

#	Modifying user name:	WinNT
#	Modification time:	15. 06. 2019 20:34

#	Program:	/corina/corina34_cracker 3.40 0067  02.08.2006

@<TRIPOS>MOLECULE
ASD03240392
  58   59    0    0    0
SMALL
NO_CHARGES


@<TRIPOS>ATOM
   1 C1            -0.0187     1.5258     0.0104 C.3     
   2 C2             0.0021    -0.0041     0.0020 C.3     
   3 C3            -1.4333    -0.5336     0.0129 C.3     
   4 C4            -1.4126    -2.0635     0.0045 C.3     
   5 C5            -2.8479    -2.5931     0.0153 C.3     
   6 C6            -2.8272    -4.1229     0.0069 C.3     
   7 C7            -4.2626    -4.6525     0.0178 C.3     
   8 C8            -4.2418    -6.1823     0.0094 C.3     
   9 C9            -5.6772    -6.7119     0.0202 C.3     
  10 C10           -5.6565    -8.2417     0.0118 C.3     
  11 C11           -7.0918    -8.7713     0.0227 C.3     
  12 C12           -7.0711   -10.3012     0.0143 C.3     
  13 C13           -8.4849   -10.8228     0.0250 C.ar    
  14 C14           -9.1448   -11.0556    -1.1672 C.ar    
  15 C15          -10.4416   -11.5340    -1.1574 C.ar    
  16 C16          -11.0785   -11.7801     0.0446 C.ar    
  17 C17          -10.4183   -11.5481     1.2367 C.ar    
  18 C18           -9.1199   -11.0738     1.2269 C.ar    
  19 S19          -12.7320   -12.3888     0.0571 S.o2    
  20 O20          -13.2843   -12.0241     1.3145 O.2     
  21 O21          -13.3088   -12.0089    -1.1848 O.2     
  22 N22          -12.6456   -14.0425     0.0462 N.am    
  23 C23          -12.0918   -14.7151     1.1254 C.2     
  24 N24          -11.6063   -14.1699     2.2039 N.2     
  25 N25          -11.1407   -14.9383     3.0888 N.2     
  26 C26          -11.1766   -16.2117     2.8662 C.2     
  27 S27          -11.9250   -16.4647     1.2881 S.3     
  28 H28            1.0039     1.9031     0.0027 H       
  29 H29           -0.5459     1.8868    -0.8726 H       
  30 H30           -0.5289     1.8773     0.9072 H       
  31 H31            0.5123    -0.3556    -0.8948 H       
  32 H32            0.5293    -0.3651     0.8851 H       
  33 H33           -1.9435    -0.1821     0.9097 H       
  34 H34           -1.9605    -0.1726    -0.8702 H       
  35 H35           -0.9024    -2.4150    -0.8923 H       
  36 H36           -0.8854    -2.4246     0.8875 H       
  37 H37           -3.3581    -2.2415     0.9121 H       
  38 H38           -3.3751    -2.2320    -0.8677 H       
  39 H39           -2.3170    -4.4744    -0.8899 H       
  40 H40           -2.3000    -4.4840     0.8900 H       
  41 H41           -4.7728    -4.3010     0.9146 H       
  42 H42           -4.7898    -4.2914    -0.8653 H       
  43 H43           -3.7316    -6.5338    -0.8874 H       
  44 H44           -3.7146    -6.5434     0.8924 H       
  45 H45           -6.1874    -6.3604     0.9170 H       
  46 H46           -6.2044    -6.3508    -0.8628 H       
  47 H47           -5.1463    -8.5933    -0.8850 H       
  48 H48           -5.1293    -8.6028     0.8949 H       
  49 H49           -7.6020    -8.4198     0.9195 H       
  50 H50           -7.6190    -8.4102    -0.8604 H       
  51 H51           -6.5609   -10.6527    -0.8825 H       
  52 H52           -6.5439   -10.6622     0.8973 H       
  53 H53           -8.6472   -10.8634    -2.1063 H       
  54 H54          -10.9574   -11.7152    -2.0888 H       
  55 H55          -10.9160   -11.7400     2.1758 H       
  56 H56           -8.6041   -10.8926     2.1583 H       
  57 H57          -12.9823   -14.5408    -0.7149 H       
  58 H58          -10.8160   -16.9836     3.5300 H       
@<TRIPOS>BOND
   1    1    2 1
   2    1   28 1
   3    1   29 1
   4    1   30 1
   5    2    3 1
   6    2   31 1
   7    2   32 1
   8    3    4 1
   9    3   33 1
  10    3   34 1
  11    4    5 1
  12    4   35 1
  13    4   36 1
  14    5    6 1
  15    5   37 1
  16    5   38 1
  17    6    7 1
  18    6   39 1
  19    6   40 1
  20    7    8 1
  21    7   41 1
  22    7   42 1
  23    8    9 1
  24    8   43 1
  25    8   44 1
  26    9   10 1
  27    9   45 1
  28    9   46 1
  29   10   11 1
  30   10   47 1
  31   10   48 1
  32   11   12 1
  33   11   49 1
  34   11   50 1
  35   12   13 1
  36   12   51 1
  37   12   52 1
  38   13   14 ar
  39   13   18 ar
  40   14   15 ar
  41   14   53 1
  42   15   16 ar
  43   15   54 1
  44   16   17 ar
  45   16   19 1
  46   17   18 ar
  47   17   55 1
  48   18   56 1
  49   19   20 2
  50   19   21 2
  51   19   22 am
  52   22   23 1
  53   22   57 1
  54   23   24 2
  55   23   27 1
  56   24   25 1
  57   25   26 2
  58   26   27 1
  59   26   58 1

#	End of record

