#	Name: ASD01660005
#	Creating user name:	WinNT
#	Creation time:	15. 06. 2019 19:22

#	Modifying user name:	WinNT
#	Modification time:	15. 06. 2019 19:22

#	Program:	/corina/corina34_cracker 3.40 0067  02.08.2006

@<TRIPOS>MOLECULE
ASD01660005
 227  229    0    0    0
SMALL
NO_CHARGES


@<TRIPOS>ATOM
   1 O1             4.1058    -5.9313     0.6154 O.2     
   2 O2             8.0618    -6.4917     3.1630 O.2     
   3 O3            19.9951   -19.6645     7.0734 O.2     
   4 O4             9.2238   -10.9175     2.5012 O.2     
   5 O5             3.2176    -1.4734     1.8253 O.2     
   6 O6            16.0054   -17.6472     8.2516 O.2     
   7 O7            14.6929   -15.3637     4.4516 O.2     
   8 O8            12.0443   -11.9165     6.0258 O.2     
   9 O9            20.3008   -23.3446     9.8555 O.2     
  10 O10           -0.8728    -0.4550    -0.7128 O.3     
  11 O11           -0.1287     1.2400     2.1108 O.3     
  12 O12           -0.0550    -0.9290     2.5268 O.2     
  13 O13            9.9935   -16.5903     3.1325 O.2     
  14 O14           24.8371   -24.1731    10.1900 O.2     
  15 O15           24.8723   -28.5133    12.0636 O.2     
  16 O16           29.4104   -28.9252    13.3226 O.2     
  17 O17           28.0579   -36.1703    17.6159 O.3     
  18 N18            6.3876    -6.7872     1.7377 N.am    
  19 N19            4.0838    -3.9680     1.6483 N.am    
  20 N20            8.7528    -8.9980     3.5089 N.am    
  21 N21           17.9104   -19.3869     7.7797 N.am    
  22 N22           16.0950   -16.5103     6.3486 N.am    
  23 N23           20.7919   -21.4370     8.8347 N.am    
  24 N24           11.2733   -11.6553     3.9620 N.am    
  25 N25           13.2813   -14.2081     5.7141 N.am    
  26 N26            1.4417    -1.6858     0.5128 N.am    
  27 N27           22.6727   -24.4625     9.7983 N.am    
  28 N28            4.3587   -13.8662     4.0603 N.3     
  29 N29           19.1124   -21.4984     3.1587 N.2     
  30 N30           17.3260   -14.4425    10.9817 N.2     
  31 N31           11.5299   -18.1055     2.6171 N.am    
  32 N32           25.3639   -26.4856    11.3094 N.am    
  33 N33           17.7994   -23.4035     3.3250 N.pl3   
  34 N34           20.0979   -23.5520     2.7202 N.pl3   
  35 N35           19.4431   -13.8789    10.2193 N.pl3   
  36 N36           19.1262   -14.7548    12.4109 N.pl3   
  37 N37           27.2459   -29.2147    12.9309 N.am    
  38 N38           29.9609   -31.4343    14.0044 N.3     
  39 C39            6.1382    -5.3456     1.6624 C.3     
  40 C40            7.0644    -4.7217     0.6165 C.3     
  41 C41            7.6340    -8.7429     2.5982 C.3     
  42 C42            2.7190    -3.6918     1.1932 C.3     
  43 C43            6.3813    -9.4506     3.1184 C.3     
  44 C44            1.7208    -4.3745     2.1304 C.3     
  45 C45           19.4098   -20.9660     8.9531 C.3     
  46 C46            4.7032    -5.1038     1.2706 C.2     
  47 C47           19.2098   -20.3106    10.3211 C.3     
  48 C48            7.3775    -7.2599     2.5207 C.2     
  49 C49           17.6358   -18.4084     6.7245 C.3     
  50 C50            6.5978   -10.9648     3.0795 C.3     
  51 C51           19.3744   -21.3627    11.4197 C.3     
  52 C52           10.6391   -10.3819     4.3122 C.3     
  53 C53           15.0105   -15.6227     6.7758 C.3     
  54 C54            6.7095    -5.2660    -0.7686 C.3     
  55 C55            6.8937    -3.2013     0.6261 C.3     
  56 C56           17.2225   -19.1397     5.4458 C.3     
  57 C57           12.6078   -13.6575     4.5354 C.3     
  58 C58           19.1273   -19.9594     7.8677 C.2     
  59 C59            9.4882   -10.1195     3.3754 C.2     
  60 C60           15.5871   -14.4800     7.6141 C.3     
  61 C61            5.3451   -11.6725     3.5997 C.3     
  62 C62            2.4784    -2.2042     1.2005 C.2     
  63 C63           16.5203   -17.4954     7.1640 C.2     
  64 C64           11.6633    -9.2518     4.1910 C.3     
  65 C65            1.8676    -5.8929     2.0132 C.3     
  66 C66            1.9992    -3.9450     3.5723 C.3     
  67 C67           14.3178   -15.0563     5.5633 C.2     
  68 C68           11.5416   -14.6420     4.0508 C.3     
  69 C69           18.3991   -19.9710     4.9307 C.3     
  70 C70           11.9555   -12.3476     4.8956 C.2     
  71 C71           19.2984   -20.6858    12.7897 C.3     
  72 C72           18.2579   -22.4022    11.3018 C.3     
  73 C73           16.1809   -15.0446     8.9062 C.3     
  74 C74           22.5575   -23.1308     9.1985 C.3     
  75 C75            5.5615   -13.1867     3.5608 C.3     
  76 C76           21.1357   -22.6463     9.3204 C.2     
  77 C77            1.1395    -0.2556     0.6107 C.3     
  78 C78           12.7525    -9.4492     5.2136 C.ar    
  79 C79           12.2163   -15.9275     3.5679 C.3     
  80 C80           17.9857   -20.7024     3.6519 C.3     
  81 C81           22.9473   -23.2016     7.7207 C.3     
  82 C82            0.3976     0.1963    -0.6487 C.3     
  83 C83           16.7574   -13.9019     9.7444 C.3     
  84 C84           13.8754   -10.1891     4.8932 C.ar    
  85 C85           12.6315    -8.8856     6.4700 C.ar    
  86 C86           24.4044   -23.5674     7.6025 C.ar    
  87 C87            0.2749    -0.0066     1.8197 C.2     
  88 C88           11.1661   -16.8972     3.0906 C.2     
  89 C89            1.2214    -0.1698    -1.8849 C.3     
  90 C90           23.8621   -24.8904    10.2658 C.2     
  91 C91           14.8745   -10.3703     5.8312 C.ar    
  92 C92           13.6306    -9.0667     7.4080 C.ar    
  93 C93           24.7797   -24.8957     7.5266 C.ar    
  94 C94           25.3654   -22.5745     7.5643 C.ar    
  95 C95           14.7510    -9.8111     7.0894 C.ar    
  96 C96           23.9806   -26.2602    10.8827 C.3     
  97 C97           19.0052   -22.7943     3.0696 C.2     
  98 C98           18.6084   -14.3602    11.2000 C.2     
  99 C99           26.1163   -25.2312     7.4182 C.ar    
 100 C100          26.7020   -22.9100     7.4559 C.ar    
 101 C101          27.0776   -24.2385     7.3853 C.ar    
 102 C102          25.7078   -27.6511    11.8923 C.2     
 103 C103          27.1307   -27.8830    12.3312 C.3     
 104 C104          28.4354   -29.6426    13.3984 C.2     
 105 C105          28.5539   -31.0124    14.0154 C.3     
 106 C106          28.0461   -30.9677    15.4579 C.3     
 107 C107          28.0494   -32.3598    16.0350 C.ar    
 108 C108          29.1720   -32.8333    16.6888 C.ar    
 109 C109          26.9278   -33.1594    15.9148 C.ar    
 110 C110          29.1773   -34.1089    17.2191 C.ar    
 111 C111          26.9281   -34.4357    16.4433 C.ar    
 112 C112          28.0551   -34.9150    17.0951 C.ar    
 113 H113           6.3307    -4.8923     2.6347 H       
 114 H114           8.0988    -4.9727     0.8514 H       
 115 H115           7.8796    -9.1214     1.6060 H       
 116 H116           2.5886    -4.0759     0.1814 H       
 117 H117           6.1868    -9.1377     4.1442 H       
 118 H118           5.5293    -9.1892     2.4910 H       
 119 H119           0.7068    -4.0851     1.8544 H       
 120 H120           5.8403    -7.4016     1.2240 H       
 121 H121          18.7282   -21.8105     8.8518 H       
 122 H122          19.9507   -19.5229    10.4584 H       
 123 H123          18.2092   -19.8817    10.3757 H       
 124 H124          18.5329   -17.8197     6.5326 H       
 125 H125           6.7923   -11.2777     2.0537 H       
 126 H126           7.4498   -11.2262     3.7070 H       
 127 H127           4.5416    -3.3334     2.2216 H       
 128 H128          20.3412   -21.8540    11.3103 H       
 129 H129          10.2700   -10.4295     5.3367 H       
 130 H130          14.2940   -16.1862     7.3735 H       
 131 H131           8.9643    -8.3597     4.2081 H       
 132 H132           5.6751    -5.0151    -1.0035 H       
 133 H133           7.3693    -4.8216    -1.5137 H       
 134 H134           6.8311    -6.3492    -0.7755 H       
 135 H135           5.8947    -2.9456     0.2730 H       
 136 H136           7.0271    -2.8271     1.6412 H       
 137 H137           7.6377    -2.7480    -0.0289 H       
 138 H138          16.3793   -19.7967     5.6594 H       
 139 H139          16.9329   -18.4115     4.6882 H       
 140 H140          13.3382   -13.4938     3.7430 H       
 141 H141          16.3672   -13.9715     7.0475 H       
 142 H142          14.7947   -13.7722     7.8573 H       
 143 H143          17.2163   -19.6228     8.4150 H       
 144 H144           5.1505   -11.3596     4.6256 H       
 145 H145           4.4930   -11.4111     2.9723 H       
 146 H146          16.5068   -16.3889     5.4788 H       
 147 H147          12.0975    -9.2606     3.1913 H       
 148 H148          11.1708    -8.2950     4.3649 H       
 149 H149           2.8322    -6.1971     2.4195 H       
 150 H150           1.0682    -6.3795     2.5722 H       
 151 H151           1.8068    -6.1840     0.9646 H       
 152 H152           1.8946    -2.8632     3.6557 H       
 153 H153           1.2880    -4.4314     4.2400 H       
 154 H154           3.0131    -4.2344     3.8483 H       
 155 H155          21.4596   -20.8786     8.4067 H       
 156 H156          11.2022   -12.0001     3.0581 H       
 157 H157          10.8620   -14.8742     4.8707 H       
 158 H158          10.9810   -14.1953     3.2296 H       
 159 H159          19.2422   -19.3141     4.7171 H       
 160 H160          18.6887   -20.6993     5.6882 H       
 161 H161          12.9812   -13.9622     6.6032 H       
 162 H162          18.3121   -22.8844    10.3258 H       
 163 H163          18.3752   -23.1517    12.0844 H       
 164 H164          17.2911   -21.9109    11.4111 H       
 165 H165          18.3316   -20.1945    12.8990 H       
 166 H166          19.4157   -21.4353    13.5723 H       
 167 H167          20.0938   -19.9452    12.8736 H       
 168 H168          15.4008   -15.5531     9.4727 H       
 169 H169          16.9733   -15.7524     8.6630 H       
 170 H170           0.8956    -2.2596    -0.0471 H       
 171 H171          23.2224   -22.4401     9.7170 H       
 172 H172           6.4135   -13.4481     4.1883 H       
 173 H173           5.7560   -13.4996     2.5350 H       
 174 H174           2.0685     0.3063     0.7065 H       
 175 H175          12.8959   -15.6953     2.7479 H       
 176 H176          12.7769   -16.3742     4.3890 H       
 177 H177          17.6961   -19.9741     2.8943 H       
 178 H178          17.1426   -21.3593     3.8655 H       
 179 H179          22.3413   -23.9573     7.2209 H       
 180 H180          22.7770   -22.2318     7.2532 H       
 181 H181           0.2511     1.2760    -0.6164 H       
 182 H182          15.9650   -13.1940     9.9877 H       
 183 H183          17.5375   -13.3934     9.1779 H       
 184 H184          21.8929   -25.0362     9.8589 H       
 185 H185          13.9718   -10.6260     3.9103 H       
 186 H186          11.7564    -8.3035     6.7187 H       
 187 H187           4.4767   -14.8682     4.0446 H       
 188 H188           4.1200   -13.5447     4.9865 H       
 189 H189           1.3678    -1.2495    -1.9172 H       
 190 H190           0.6928     0.1522    -2.7822 H       
 191 H191           2.1903     0.3269    -1.8361 H       
 192 H192          15.7514   -10.9490     5.5812 H       
 193 H193          13.5362    -8.6261     8.3895 H       
 194 H194          -0.8189    -1.4199    -0.7442 H       
 195 H195          24.0286   -25.6713     7.5523 H       
 196 H196          25.0719   -21.5365     7.6189 H       
 197 H197          15.5315    -9.9529     7.8223 H       
 198 H198          23.6993   -27.0150    10.1484 H       
 199 H199          23.3185   -26.3285    11.7458 H       
 200 H200          10.8540   -18.7296     2.3099 H       
 201 H201          12.4678   -18.3509     2.5836 H       
 202 H202          -0.6819     1.3502     2.8963 H       
 203 H203          26.4095   -26.2690     7.3596 H       
 204 H204          27.4528   -22.1342     7.4257 H       
 205 H205          28.1219   -24.5006     7.3010 H       
 206 H206          26.0322   -25.7961    11.1724 H       
 207 H207          20.9486   -23.1222     2.5400 H       
 208 H208          20.0181   -24.5165     2.6539 H       
 209 H209          16.9963   -22.8682     3.4212 H       
 210 H210          17.7519   -24.3687     3.4089 H       
 211 H211          18.5373   -15.0943    13.1028 H       
 212 H212          20.0806   -14.6936    12.5734 H       
 213 H213          19.0724   -13.5464     9.3869 H       
 214 H214          20.4029   -13.8719    10.3598 H       
 215 H215          27.4120   -27.1282    13.0655 H       
 216 H216          27.7929   -27.8147    11.4681 H       
 217 H217          26.4662   -29.7884    12.9916 H       
 218 H218          27.9573   -31.7219    13.4420 H       
 219 H219          28.6968   -30.3264    16.0525 H       
 220 H220          27.0313   -30.5702    15.4738 H       
 221 H221          30.3012   -31.5339    13.0597 H       
 222 H222          30.5351   -30.7921    14.5297 H       
 223 H223          30.0455   -32.2054    16.7847 H       
 224 H224          26.0506   -32.7857    15.4076 H       
 225 H225          30.0545   -34.4784    17.7293 H       
 226 H226          26.0517   -35.0598    16.3494 H       
 227 H227          27.7472   -36.2174    18.5305 H       
@<TRIPOS>BOND
   1    1   46 2
   2    2   48 2
   3    3   58 2
   4    4   59 2
   5    5   62 2
   6    6   63 2
   7    7   67 2
   8    8   70 2
   9    9   76 2
  10   10  194 1
  11   10   82 1
  12   11   87 1
  13   11  202 1
  14   12   87 2
  15   13   88 2
  16   14   90 2
  17   15  102 2
  18   16  104 2
  19   17  112 1
  20   17  227 1
  21   18   48 am
  22   18  120 1
  23   18   39 1
  24   19   46 am
  25   19  127 1
  26   19   42 1
  27   20   59 am
  28   20  131 1
  29   20   41 1
  30   21   58 am
  31   21  143 1
  32   21   49 1
  33   22   63 am
  34   22  146 1
  35   22   53 1
  36   23   76 am
  37   23  155 1
  38   23   45 1
  39   24   70 am
  40   24  156 1
  41   24   52 1
  42   25   67 am
  43   25  161 1
  44   25   57 1
  45   26   62 am
  46   26  170 1
  47   26   77 1
  48   27   90 am
  49   27  184 1
  50   27   74 1
  51   28   75 1
  52   28  187 1
  53   28  188 1
  54   29   80 1
  55   29   97 2
  56   30   83 1
  57   30   98 2
  58   31   88 am
  59   31  200 1
  60   31  201 1
  61   32   96 1
  62   32  102 am
  63   32  206 1
  64   33   97 1
  65   33  209 1
  66   33  210 1
  67   34   97 1
  68   34  207 1
  69   34  208 1
  70   35   98 1
  71   35  213 1
  72   35  214 1
  73   36   98 1
  74   36  211 1
  75   36  212 1
  76   37  103 1
  77   37  104 am
  78   37  217 1
  79   38  221 1
  80   38  222 1
  81   38  105 1
  82   39   40 1
  83   39   46 1
  84   39  113 1
  85   40   54 1
  86   40   55 1
  87   40  114 1
  88   41   43 1
  89   41   48 1
  90   41  115 1
  91   42   44 1
  92   42   62 1
  93   42  116 1
  94   43   50 1
  95   43  117 1
  96   43  118 1
  97   44   65 1
  98   44   66 1
  99   44  119 1
 100   45   47 1
 101   45   58 1
 102   45  121 1
 103   47   51 1
 104   47  122 1
 105   47  123 1
 106   49   56 1
 107   49   63 1
 108   49  124 1
 109   50   61 1
 110   50  125 1
 111   50  126 1
 112   51   71 1
 113   51   72 1
 114   51  128 1
 115   52   59 1
 116   52   64 1
 117   52  129 1
 118   53   60 1
 119   53   67 1
 120   53  130 1
 121   54  132 1
 122   54  133 1
 123   54  134 1
 124   55  135 1
 125   55  136 1
 126   55  137 1
 127   56   69 1
 128   56  138 1
 129   56  139 1
 130   57   68 1
 131   57   70 1
 132   57  140 1
 133   60   73 1
 134   60  141 1
 135   60  142 1
 136   61   75 1
 137   61  144 1
 138   61  145 1
 139   64   78 1
 140   64  147 1
 141   64  148 1
 142   65  149 1
 143   65  150 1
 144   65  151 1
 145   66  152 1
 146   66  153 1
 147   66  154 1
 148   68   79 1
 149   68  157 1
 150   68  158 1
 151   69   80 1
 152   69  159 1
 153   69  160 1
 154   71  165 1
 155   71  166 1
 156   71  167 1
 157   72  162 1
 158   72  163 1
 159   72  164 1
 160   73   83 1
 161   73  168 1
 162   73  169 1
 163   74   76 1
 164   74   81 1
 165   74  171 1
 166   75  172 1
 167   75  173 1
 168   77   82 1
 169   77   87 1
 170   77  174 1
 171   78   84 ar
 172   78   85 ar
 173   79   88 1
 174   79  175 1
 175   79  176 1
 176   80  177 1
 177   80  178 1
 178   81   86 1
 179   81  179 1
 180   81  180 1
 181   82   89 1
 182   82  181 1
 183   83  182 1
 184   83  183 1
 185   84   91 ar
 186   84  185 1
 187   85   92 ar
 188   85  186 1
 189   86   93 ar
 190   86   94 ar
 191   89  189 1
 192   89  190 1
 193   89  191 1
 194   90   96 1
 195   91   95 ar
 196   91  192 1
 197   92   95 ar
 198   92  193 1
 199   93   99 ar
 200   93  195 1
 201   94  100 ar
 202   94  196 1
 203   95  197 1
 204   96  198 1
 205   96  199 1
 206   99  101 ar
 207   99  203 1
 208  100  101 ar
 209  100  204 1
 210  101  205 1
 211  102  103 1
 212  103  215 1
 213  103  216 1
 214  104  105 1
 215  105  106 1
 216  105  218 1
 217  106  107 1
 218  106  219 1
 219  106  220 1
 220  107  108 ar
 221  107  109 ar
 222  108  110 ar
 223  108  223 1
 224  109  111 ar
 225  109  224 1
 226  110  112 ar
 227  110  225 1
 228  111  112 ar
 229  111  226 1

#	End of record

