#	Name: ASD01913366
#	Creating user name:	WinNT
#	Creation time:	15. 06. 2019 20:01

#	Modifying user name:	WinNT
#	Modification time:	15. 06. 2019 20:01

#	Program:	/corina/corina34_cracker 3.40 0067  02.08.2006

@<TRIPOS>MOLECULE
ASD01913366
  35   37    0    0    0
SMALL
NO_CHARGES


@<TRIPOS>ATOM
   1 C1            -0.0166     1.3765     0.0096 C.2     
   2 C2             0.0021    -0.0041     0.0020 C.2     
   3 C3             1.2499    -0.6727    -0.0135 C.2     
   4 N4             2.3635     0.0159    -0.0204 N.2     
   5 C5             2.3514     1.3567    -0.0131 C.2     
   6 N6             1.1685     2.0507     0.0019 N.pl3   
   7 C7             3.3711     2.2994    -0.0178 C.2     
   8 C8             2.7831     3.5557    -0.0054 C.2     
   9 N9             1.4768     3.4160     0.0063 N.2     
  10 C10           -1.2215    -0.7480     0.0102 C.1     
  11 C11           -2.2246    -1.3579     0.0169 C.1     
  12 C12           -3.4482    -2.1018     0.0250 C.ar    
  13 C13           -3.4205    -3.4989     0.0173 C.ar    
  14 C14           -4.6030    -4.2087     0.0257 C.ar    
  15 C15           -5.8500    -2.1574     0.0549 C.ar    
  16 C16           -4.6756    -1.4342     0.0466 C.ar    
  17 C17           -5.8148    -3.5407     0.0418 C.ar    
  18 C18            3.5231     4.8685    -0.0050 C.3     
  19 C19            3.8963     5.2431     1.4307 C.3     
  20 C20            4.7952     4.7372    -0.8449 C.3     
  21 H21           -0.9539     1.9131     0.0170 H       
  22 H22            1.2833    -1.7522    -0.0192 H       
  23 H23            4.4309     2.0919    -0.0290 H       
  24 H24           -2.4755    -4.0216     0.0043 H       
  25 H25           -4.5832    -5.2885     0.0193 H       
  26 H26           -6.7994    -1.6428     0.0716 H       
  27 H27           -4.7046    -0.3546     0.0572 H       
  28 H28           -6.7376    -4.1017     0.0483 H       
  29 H29            2.8862     5.6447    -0.4291 H       
  30 H30            2.9900     5.3367     2.0291 H       
  31 H31            4.5332     4.4669     1.8549 H       
  32 H32            4.4315     6.1927     1.4311 H       
  33 H33            4.5293     4.4703    -1.8677 H       
  34 H34            5.3304     5.6868    -0.8446 H       
  35 H35            5.4321     3.9610    -0.4207 H       
@<TRIPOS>BOND
   1    1    2 2
   2    1    6 1
   3    1   21 1
   4    2    3 1
   5    2   10 1
   6    3    4 2
   7    3   22 1
   8    4    5 1
   9    5    6 1
  10    5    7 2
  11    6    9 1
  12    7    8 1
  13    7   23 1
  14    8    9 2
  15    8   18 1
  16   10   11 3
  17   11   12 1
  18   12   13 ar
  19   12   16 ar
  20   13   14 ar
  21   13   24 1
  22   14   17 ar
  23   14   25 1
  24   15   16 ar
  25   15   17 ar
  26   15   26 1
  27   16   27 1
  28   17   28 1
  29   18   19 1
  30   18   20 1
  31   18   29 1
  32   19   30 1
  33   19   31 1
  34   19   32 1
  35   20   33 1
  36   20   34 1
  37   20   35 1

#	End of record

