#	Name: ASD01914922
#	Creating user name:	WinNT
#	Creation time:	15. 06. 2019 20:04

#	Modifying user name:	WinNT
#	Modification time:	15. 06. 2019 20:04

#	Program:	/corina/corina34_cracker 3.40 0067  02.08.2006

@<TRIPOS>MOLECULE
ASD01914922
  70   74    0    0    0
SMALL
NO_CHARGES


@<TRIPOS>ATOM
   1 C1             0.1570     1.7793     0.2095 C.2     
   2 N2             0.1132     0.4911     0.4783 N.2     
   3 C3             1.4931     2.1321    -0.0441 C.2     
   4 C4             2.2524     1.0060     0.0824 C.2     
   5 N5             1.4149    -0.0205     0.4057 N.pl3   
   6 C6            -1.0069     2.7000     0.1741 C.ar    
   7 C7            -2.2870     2.2191     0.4408 C.ar    
   8 C8            -3.3657     3.0795     0.4065 C.ar    
   9 C9            -3.1775     4.4169     0.1077 C.ar    
  10 C10           -1.9088     4.8995    -0.1578 C.ar    
  11 C11           -0.8223     4.0491    -0.1202 C.ar    
  12 C12            3.7185     0.9148    -0.0982 C.ar    
  13 C13            4.3921     1.8747    -0.8538 C.ar    
  14 C14            5.7590     1.7841    -1.0186 C.ar    
  15 C15            6.4614     0.7442    -0.4364 C.ar    
  16 C16            5.7991    -0.2111     0.3137 C.ar    
  17 C17            4.4332    -0.1282     0.4910 C.ar    
  18 C18            1.8076    -1.4129     0.6369 C.3     
  19 C19            2.0309    -1.6337     2.1108 C.2     
  20 N20            2.4015    -2.8486     2.5616 N.am    
  21 O21            1.8772    -0.7183     2.8913 O.2     
  22 C22            2.6228    -3.0786     3.9962 C.3     
  23 C23            1.7395    -4.2485     4.4469 C.3     
  24 N24            1.9290    -5.3671     3.5128 N.am    
  25 C25            1.7077    -5.1372     2.0782 C.3     
  26 C26            2.5856    -3.9687     1.6281 C.3     
  27 C27            2.2995    -6.5820     3.9636 C.2     
  28 O28            2.5889    -7.5648     3.0900 O.3     
  29 O29            2.3724    -6.7904     5.1585 O.2     
  30 C30            2.9808    -8.8473     3.6466 C.3     
  31 C31            2.0820    -6.3956     1.2927 C.3     
  32 C32            2.1433    -4.6832     5.8572 C.3     
  33 C33            3.2637    -9.8155     2.5270 C.ar    
  34 C34            4.5395    -9.9135     2.0039 C.ar    
  35 C35            2.2488   -10.6096     2.0268 C.ar    
  36 C36            2.5083   -11.4977     0.9998 C.ar    
  37 C37            3.7827   -11.5914     0.4726 C.ar    
  38 C38            4.7991   -10.8016     0.9768 C.ar    
  39 H39            1.8544     3.1185    -0.2948 H       
  40 H40           -2.4350     1.1749     0.6735 H       
  41 H41           -4.3584     2.7078     0.6131 H       
  42 H42           -4.0244     5.0866     0.0813 H       
  43 H43           -1.7675     5.9446    -0.3906 H       
  44 H44            0.1680     4.4271    -0.3273 H       
  45 H45            3.8447     2.6868    -1.3091 H       
  46 H46            6.2816     2.5265    -1.6036 H       
  47 H47            7.5313     0.6776    -0.5682 H       
  48 H48            6.3529    -1.0210     0.7651 H       
  49 H49            3.9173    -0.8744     1.0770 H       
  50 H50            1.0173    -2.0764     0.2857 H       
  51 H51            2.7286    -1.6255     0.0940 H       
  52 H52            3.6707    -3.3232     4.1701 H       
  53 H53            2.3561    -2.1820     4.5558 H       
  54 H54            0.6939    -3.9406     4.4417 H       
  55 H55            0.6598    -4.8926     1.9043 H       
  56 H56            2.2969    -3.6601     0.6233 H       
  57 H57            3.6319    -4.2740     1.6331 H       
  58 H58            3.8775    -8.7213     4.2534 H       
  59 H59            2.1736    -9.2358     4.2676 H       
  60 H60            1.4373    -7.2198     1.5981 H       
  61 H61            1.9538    -6.2099     0.2263 H       
  62 H62            3.1217    -6.6538     1.4941 H       
  63 H63            2.1221    -3.8206     6.5233 H       
  64 H64            1.4454    -5.4385     6.2185 H       
  65 H65            3.1502    -5.1001     5.8346 H       
  66 H66            5.3334    -9.2961     2.3974 H       
  67 H67            1.2531   -10.5364     2.4387 H       
  68 H68            1.7155   -12.1186     0.6095 H       
  69 H69            3.9856   -12.2855    -0.3296 H       
  70 H70            5.7948   -10.8748     0.5650 H       
@<TRIPOS>BOND
   1    1    2 2
   2    1    3 1
   3    1    6 1
   4    2    5 1
   5    3    4 2
   6    3   39 1
   7    4    5 1
   8    4   12 1
   9    5   18 1
  10    6    7 ar
  11    6   11 ar
  12    7    8 ar
  13    7   40 1
  14    8    9 ar
  15    8   41 1
  16    9   10 ar
  17    9   42 1
  18   10   11 ar
  19   10   43 1
  20   11   44 1
  21   12   13 ar
  22   12   17 ar
  23   13   14 ar
  24   13   45 1
  25   14   15 ar
  26   14   46 1
  27   15   16 ar
  28   15   47 1
  29   16   17 ar
  30   16   48 1
  31   17   49 1
  32   18   19 1
  33   18   50 1
  34   18   51 1
  35   19   20 am
  36   19   21 2
  37   20   22 1
  38   20   26 1
  39   22   23 1
  40   22   52 1
  41   22   53 1
  42   23   24 1
  43   23   32 1
  44   23   54 1
  45   24   25 1
  46   24   27 am
  47   25   26 1
  48   25   31 1
  49   25   55 1
  50   26   56 1
  51   26   57 1
  52   27   28 1
  53   27   29 2
  54   28   30 1
  55   30   33 1
  56   30   58 1
  57   30   59 1
  58   31   60 1
  59   31   61 1
  60   31   62 1
  61   32   63 1
  62   32   64 1
  63   32   65 1
  64   33   34 ar
  65   33   35 ar
  66   34   38 ar
  67   34   66 1
  68   35   36 ar
  69   35   67 1
  70   36   37 ar
  71   36   68 1
  72   37   38 ar
  73   37   69 1
  74   38   70 1

#	End of record

