#	Name: ASD02030608
#	Creating user name:	WinNT
#	Creation time:	15. 06. 2019 20:15

#	Modifying user name:	WinNT
#	Modification time:	15. 06. 2019 20:15

#	Program:	/corina/corina34_cracker 3.40 0067  02.08.2006

@<TRIPOS>MOLECULE
ASD02030608
  59   62    0    0    0
SMALL
NO_CHARGES


@<TRIPOS>ATOM
   1 C1            -0.1043     1.4258    -0.0806 C.ar    
   2 C2            -0.1546     0.0495    -0.1304 C.ar    
   3 C3             1.0271    -0.6806    -0.1605 C.ar    
   4 C4             2.2439    -0.0178    -0.1344 C.ar    
   5 C5             2.2904     1.3688    -0.0781 C.ar    
   6 C6             1.1162     2.0887    -0.0599 C.ar    
   7 C7             1.0956     3.5967    -0.0323 C.3     
   8 C8             3.6480     2.0189    -0.0240 C.3     
   9 C9             3.5679     3.4825    -0.4547 C.3     
  10 N10            2.4405     4.1041     0.2596 N.am    
  11 C11            0.6367     4.1245    -1.3931 C.3     
  12 O12            1.4712     3.5842    -2.4197 O.3     
  13 C13            1.1961     3.9561    -3.6984 C.ar    
  14 C14            2.6363     5.1001     1.1462 C.2     
  15 O15            3.7659     5.4486     1.4291 O.2     
  16 C16            1.4771     5.7689     1.7746 C.ar    
  17 C17            0.6357     4.7127    -6.3017 C.ar    
  18 C18           -0.1312     5.2050    -5.2560 C.ar    
  19 C19            0.1483     4.8272    -3.9571 C.ar    
  20 C20            1.9668     3.4687    -4.7434 C.ar    
  21 C21            1.6873     3.8464    -6.0424 C.ar    
  22 C22            1.5544     6.2096     3.0964 C.ar    
  23 C23            0.3028     5.9673     1.0465 C.ar    
  24 C24           -0.7754     6.5918     1.6383 C.ar    
  25 C25           -0.6952     7.0216     2.9510 C.ar    
  26 C26            0.4681     6.8333     3.6773 C.ar    
  27 Br27           0.5696     7.4310     5.4684 Br      
  28 N28            0.9890    -2.0757    -0.2164 N.pl3   
  29 O29            0.3606     5.0845    -7.5804 O.3     
  30 C30            1.1909     4.5391    -8.6075 C.3     
  31 C31           -0.2938    -2.7776    -0.1265 C.3     
  32 C32            2.2317    -2.8372    -0.3650 C.3     
  33 H33           -1.0223     1.9944    -0.0619 H       
  34 H34           -1.1074    -0.4588    -0.1456 H       
  35 H35            3.1631    -0.5842    -0.1575 H       
  36 H36            0.4046     3.9359     0.7393 H       
  37 H37            4.0305     1.9656     0.9953 H       
  38 H38            4.3273     1.4861    -0.6893 H       
  39 H39            4.4950     3.9942    -0.1963 H       
  40 H40            3.4007     3.5418    -1.5301 H       
  41 H41           -0.3964     3.8248    -1.5694 H       
  42 H42            0.7063     5.2122    -1.4032 H       
  43 H43           -0.9501     5.8795    -5.4579 H       
  44 H44           -0.4493     5.2099    -3.1430 H       
  45 H45            2.7858     2.7941    -4.5415 H       
  46 H46            2.2845     3.4630    -6.8566 H       
  47 H47            2.4615     6.0627     3.6638 H       
  48 H48            0.2386     5.6327     0.0216 H       
  49 H49           -1.6842     6.7460     1.0755 H       
  50 H50           -1.5421     7.5104     3.4095 H       
  51 H51            2.2257     4.8338    -8.4330 H       
  52 H52            1.1159     3.4517    -8.5962 H       
  53 H53            0.8644     4.9157    -9.5769 H       
  54 H54           -0.7074    -2.9081    -1.1265 H       
  55 H55           -0.1424    -3.7538     0.3343 H       
  56 H56           -0.9860    -2.1932     0.4796 H       
  57 H57            3.0820    -2.1563    -0.3249 H       
  58 H58            2.3107    -3.5649     0.4426 H       
  59 H59            2.2271    -3.3568    -1.3232 H       
@<TRIPOS>BOND
   1    1    2 ar
   2    1    6 ar
   3    1   33 1
   4    2    3 ar
   5    2   34 1
   6    3    4 ar
   7    3   28 1
   8    4    5 ar
   9    4   35 1
  10    5    6 ar
  11    5    8 1
  12    6    7 1
  13    7   10 1
  14    7   11 1
  15    7   36 1
  16    8    9 1
  17    8   37 1
  18    8   38 1
  19    9   10 1
  20    9   39 1
  21    9   40 1
  22   10   14 am
  23   11   12 1
  24   11   41 1
  25   11   42 1
  26   12   13 1
  27   13   20 ar
  28   13   19 ar
  29   14   15 2
  30   14   16 1
  31   16   23 ar
  32   16   22 ar
  33   17   18 ar
  34   17   21 ar
  35   17   29 1
  36   18   19 ar
  37   18   43 1
  38   19   44 1
  39   20   21 ar
  40   20   45 1
  41   21   46 1
  42   22   26 ar
  43   22   47 1
  44   23   24 ar
  45   23   48 1
  46   24   25 ar
  47   24   49 1
  48   25   26 ar
  49   25   50 1
  50   26   27 1
  51   28   31 1
  52   28   32 1
  53   29   30 1
  54   30   51 1
  55   30   52 1
  56   30   53 1
  57   31   54 1
  58   31   55 1
  59   31   56 1
  60   32   57 1
  61   32   58 1
  62   32   59 1

#	End of record

