#	Name: ASD06170170
#	Creating user name:	WinNT
#	Creation time:	15. 06. 2019 21:05

#	Modifying user name:	WinNT
#	Modification time:	15. 06. 2019 21:05

#	Program:	/corina/corina34_cracker 3.40 0067  02.08.2006

@<TRIPOS>MOLECULE
ASD06170170
  67   71    0    0    0
SMALL
NO_CHARGES


@<TRIPOS>ATOM
   1 N1             0.0817     0.7239    -0.4629 N.pl3   
   2 N2             0.0616    -0.6723    -0.3943 N.am    
   3 C3             1.3291    -1.1139    -0.2564 C.2     
   4 C4             2.1883     0.0806    -0.2383 C.2     
   5 C5             1.3489     1.1697    -0.3698 C.2     
   6 C6             3.6498     0.1092    -0.1061 C.2     
   7 O7             4.2400     1.1734    -0.1055 O.2     
   8 N8             4.3382    -1.0432     0.0148 N.am    
   9 C9            -1.1002     1.5754    -0.6192 C.3     
  10 C10           -1.6261     1.9762     0.7606 C.3     
  11 C11           -2.8604     2.8655     0.5973 C.3     
  12 C12           -1.0809    -1.4766    -0.4579 C.ar    
  13 C13           -2.0114    -1.2849    -1.4709 C.ar    
  14 C14           -3.1383    -2.0811    -1.5312 C.ar    
  15 C15           -3.3406    -3.0684    -0.5843 C.ar    
  16 C16           -2.4162    -3.2616     0.4259 C.ar    
  17 C17           -1.2844    -2.4726     0.4885 C.ar    
  18 O18            1.6906    -2.2722    -0.1645 O.2     
  19 C19            5.7364    -1.0227     0.0454 C.ar    
  20 C20            6.4036     0.0234     0.6693 C.ar    
  21 C21            7.7842     0.0405     0.6982 C.ar    
  22 C22            8.5023    -0.9827     0.1067 C.ar    
  23 C23            7.8411    -2.0255    -0.5157 C.ar    
  24 C24            6.4605    -2.0514    -0.5431 C.ar    
  25 S25           10.2637    -0.9572     0.1458 S.o     
  26 O26           10.5566     0.3932     0.4773 O.2     
  27 N27           11.2306    -3.1575     3.9826 N.ar    
  28 C28           11.1497    -1.8489     3.9683 C.ar    
  29 C29           10.8533    -1.1461     2.8030 C.ar    
  30 C30           10.6397    -1.8212     1.6347 C.ar    
  31 C31           10.7277    -3.2256     1.6528 C.ar    
  32 C32           10.5205    -3.9838     0.4888 C.ar    
  33 C33           10.6131    -5.3398     0.5393 C.ar    
  34 C34           10.9126    -5.9933     1.7389 C.ar    
  35 C35           11.1207    -5.2796     2.8969 C.ar    
  36 C36           11.0322    -3.8784     2.8738 C.ar    
  37 O37           10.9987    -7.3487     1.7614 O.3     
  38 C38           10.7721    -8.0337     0.5279 C.3     
  39 C39            1.7790     2.6136    -0.4044 C.3     
  40 H40            3.8639    -1.8868     0.0805 H       
  41 H41           -0.8313     2.4708    -1.1797 H       
  42 H42           -1.8737     1.0281    -1.1579 H       
  43 H43           -1.8949     1.0808     1.3211 H       
  44 H44           -0.8526     2.5235     1.2993 H       
  45 H45           -2.5915     3.7608     0.0368 H       
  46 H46           -3.6339     2.3181     0.0586 H       
  47 H47           -3.2350     3.1510     1.5803 H       
  48 H48           -1.8542    -0.5138    -2.2106 H       
  49 H49           -3.8624    -1.9323    -2.3185 H       
  50 H50           -4.2226    -3.6897    -0.6336 H       
  51 H51           -2.5773    -4.0333     1.1641 H       
  52 H52           -0.5606    -2.6269     1.2751 H       
  53 H53            5.8433     0.8230     1.1311 H       
  54 H54            8.3037     0.8539     1.1829 H       
  55 H55            8.4048    -2.8229    -0.9770 H       
  56 H56            5.9446    -2.8684    -1.0256 H       
  57 H57           11.3161    -1.3017     4.8844 H       
  58 H58           10.7932    -0.0679     2.8228 H       
  59 H59           10.2878    -3.4914    -0.4438 H       
  60 H60           10.4531    -5.9191    -0.3581 H       
  61 H61           11.3515    -5.7941     3.8180 H       
  62 H62           10.8706    -9.1077     0.6853 H       
  63 H63            9.7681    -7.8099     0.1672 H       
  64 H64           11.5046    -7.7058    -0.2097 H       
  65 H65            1.7893     3.0140     0.6093 H       
  66 H66            2.7786     2.6848    -0.8333 H       
  67 H67            1.0804     3.1863    -1.0143 H       
@<TRIPOS>BOND
   1    1    2 1
   2    1    5 1
   3    1    9 1
   4    2    3 am
   5    2   12 1
   6    3    4 1
   7    3   18 2
   8    4    5 2
   9    4    6 1
  10    5   39 1
  11    6    7 2
  12    6    8 am
  13    8   19 1
  14    8   40 1
  15    9   10 1
  16    9   41 1
  17    9   42 1
  18   10   11 1
  19   10   43 1
  20   10   44 1
  21   11   45 1
  22   11   46 1
  23   11   47 1
  24   12   13 ar
  25   12   17 ar
  26   13   14 ar
  27   13   48 1
  28   14   15 ar
  29   14   49 1
  30   15   16 ar
  31   15   50 1
  32   16   17 ar
  33   16   51 1
  34   17   52 1
  35   19   20 ar
  36   19   24 ar
  37   20   21 ar
  38   20   53 1
  39   21   22 ar
  40   21   54 1
  41   22   23 ar
  42   22   25 1
  43   23   24 ar
  44   23   55 1
  45   24   56 1
  46   25   26 2
  47   25   30 1
  48   27   28 ar
  49   27   36 ar
  50   28   29 ar
  51   28   57 1
  52   29   30 ar
  53   29   58 1
  54   30   31 ar
  55   31   32 ar
  56   31   36 ar
  57   32   33 ar
  58   32   59 1
  59   33   34 ar
  60   33   60 1
  61   34   35 ar
  62   34   37 1
  63   35   36 ar
  64   35   61 1
  65   37   38 1
  66   38   62 1
  67   38   63 1
  68   38   64 1
  69   39   65 1
  70   39   66 1
  71   39   67 1

#	End of record

