#	Name: ASD05430690
#	Creating user name:	WinNT
#	Creation time:	15. 06. 2019 21:00

#	Modifying user name:	WinNT
#	Modification time:	15. 06. 2019 21:00

#	Program:	/corina/corina34_cracker 3.40 0067  02.08.2006

@<TRIPOS>MOLECULE
ASD05430690
  24   24    0    0    0
SMALL
NO_CHARGES


@<TRIPOS>ATOM
   1 C1            -0.0167     1.3780     0.0096 C.ar    
   2 C2             0.0021    -0.0041     0.0020 C.ar    
   3 C3            -1.1864    -0.7124     0.0096 C.ar    
   4 C4            -2.4116     1.3460     0.0439 C.ar    
   5 C5            -1.2225     2.0532     0.0305 C.ar    
   6 C6             1.2782     2.1489     0.0014 C.3     
   7 C7            -2.3936    -0.0371     0.0247 C.ar    
   8 C8             2.0734     1.7967    -1.2574 C.3     
   9 C9             0.9786     3.6492     0.0123 C.3     
  10 C10            2.0973     1.7833     1.2409 C.3     
  11 Cl11          -3.9260     2.1943     0.0706 Cl      
  12 Cl12          -1.1627    -2.4482    -0.0006 Cl      
  13 H13            0.9446    -0.5312    -0.0102 H       
  14 H14           -1.2364     3.1331     0.0455 H       
  15 H15           -3.3216    -0.5896     0.0348 H       
  16 H16            1.4899     2.0572    -2.1405 H       
  17 H17            3.0100     2.3543    -1.2634 H       
  18 H18            2.2868     0.7279    -1.2652 H       
  19 H19            0.4121     3.9001     0.9091 H       
  20 H20            1.9152     4.2068     0.0064 H       
  21 H21            0.3951     3.9096    -0.8708 H       
  22 H22            2.3107     0.7145     1.2331 H       
  23 H23            3.0338     2.3409     1.2350 H       
  24 H24            1.5307     2.0342     2.1377 H       
@<TRIPOS>BOND
   1    1    2 ar
   2    1    6 1
   3    1    5 ar
   4    2    3 ar
   5    2   13 1
   6    3   12 1
   7    3    7 ar
   8    4    5 ar
   9    4   11 1
  10    4    7 ar
  11    5   14 1
  12    6    8 1
  13    6    9 1
  14    6   10 1
  15    7   15 1
  16    8   16 1
  17    8   17 1
  18    8   18 1
  19    9   19 1
  20    9   20 1
  21    9   21 1
  22   10   22 1
  23   10   23 1
  24   10   24 1

#	End of record

