#	Name: ASD02560083
#	Creating user name:	WinNT
#	Creation time:	15. 06. 2019 20:24

#	Modifying user name:	WinNT
#	Modification time:	15. 06. 2019 20:24

#	Program:	/corina/corina34_cracker 3.40 0067  02.08.2006

@<TRIPOS>MOLECULE
ASD02560083
  46   48    0    0    0
SMALL
NO_CHARGES


@<TRIPOS>ATOM
   1 C1             2.2717    -0.3602    -0.2028 C.3     
   2 C2             0.8492    -0.1502    -0.7210 C.3     
   3 C3             0.4078     1.2710    -0.4899 C.ar    
   4 C4             1.0217     2.0748     0.4565 C.ar    
   5 N5             2.0857     1.5887     1.2312 N.am    
   6 C6             2.3517     0.1437     1.2442 C.3     
   7 C7            -0.6372     1.7790    -1.2445 C.ar    
   8 C8            -1.0676     3.0785    -1.0545 C.ar    
   9 C9            -0.4564     3.8815    -0.1074 C.ar    
  10 C10            0.5869     3.3825     0.6478 C.ar    
  11 C11            2.8510     2.4329     1.9509 C.2     
  12 S12            3.4840     1.9308     3.5167 S.3     
  13 O13            3.1048     3.5414     1.5195 O.2     
  14 C14            4.3961     3.4238     3.9805 C.3     
  15 C15            5.0412     3.2203     5.3271 C.2     
  16 N16            5.7769     4.2063     5.8778 N.am    
  17 O17            4.8985     2.1693     5.9154 O.2     
  18 C18            6.3060     4.0497     7.1642 C.ar    
  19 C19            6.5512     2.7788     7.6656 C.ar    
  20 C20            7.0740     2.6274     8.9355 C.ar    
  21 C21            7.3527     3.7399     9.7075 C.ar    
  22 C22            7.1099     5.0080     9.2118 C.ar    
  23 C23            6.5925     5.1667     7.9403 C.ar    
  24 Cl24           6.2882     6.7586     7.3181 Cl      
  25 S25            8.0182     3.5418    11.3269 S.o2    
  26 O26            7.6847     4.7218    12.0449 O.2     
  27 O27            7.6467     2.2393    11.7568 O.2     
  28 N28            9.6678     3.5335    11.1813 N.am    
  29 Cl29           1.3551     4.3869     1.8372 Cl      
  30 Cl30          -2.3772     3.7051    -2.0064 Cl      
  31 H31            2.5188    -1.4214    -0.2341 H       
  32 H32            2.9726     0.1983    -0.8232 H       
  33 H33            0.8198    -0.3667    -1.7889 H       
  34 H34            0.1726    -0.8265    -0.1987 H       
  35 H35            1.6043    -0.3639     1.8540 H       
  36 H36            3.3472    -0.0449     1.6463 H       
  37 H37           -1.1176     1.1566    -1.9849 H       
  38 H38           -0.7940     4.8967     0.0405 H       
  39 H39            5.1658     3.6255     3.2356 H       
  40 H40            3.7089     4.2684     4.0307 H       
  41 H41            5.9397     5.0243     5.3827 H       
  42 H42            6.3332     1.9090     7.0637 H       
  43 H43            7.2648     1.6387     9.3258 H       
  44 H44            7.3286     5.8751     9.8173 H       
  45 H45           10.2204     3.8637    11.9069 H       
  46 H46           10.0814     3.1984    10.3704 H       
@<TRIPOS>BOND
   1    1    2 1
   2    1    6 1
   3    1   31 1
   4    1   32 1
   5    2    3 1
   6    2   33 1
   7    2   34 1
   8    3    4 ar
   9    3    7 ar
  10    4    5 1
  11    4   10 ar
  12    5    6 1
  13    5   11 am
  14    6   35 1
  15    6   36 1
  16    7    8 ar
  17    7   37 1
  18    8    9 ar
  19    8   30 1
  20    9   10 ar
  21    9   38 1
  22   10   29 1
  23   11   12 1
  24   11   13 2
  25   12   14 1
  26   14   15 1
  27   14   39 1
  28   14   40 1
  29   15   16 am
  30   15   17 2
  31   16   18 1
  32   16   41 1
  33   18   19 ar
  34   18   23 ar
  35   19   20 ar
  36   19   42 1
  37   20   21 ar
  38   20   43 1
  39   21   22 ar
  40   21   25 1
  41   22   23 ar
  42   22   44 1
  43   23   24 1
  44   25   26 2
  45   25   27 2
  46   25   28 am
  47   28   45 1
  48   28   46 1

#	End of record

