#	Name: ASD00842195
#	Creating user name:	WinNT
#	Creation time:	15. 06. 2019 18:43

#	Modifying user name:	WinNT
#	Modification time:	15. 06. 2019 18:43

#	Program:	/corina/corina34_cracker 3.40 0067  02.08.2006

@<TRIPOS>MOLECULE
ASD00842195
  90   95    0    0    0
SMALL
NO_CHARGES


@<TRIPOS>ATOM
   1 F1             6.0654    -1.6760    -2.0207 F       
   2 C2             0.9830     1.5422    -0.4527 C.ar    
   3 C3             1.2924     0.2082    -0.6735 C.ar    
   4 C4             1.2327    -0.6982     0.3754 C.ar    
   5 C5             0.8655    -0.2703     1.6363 C.ar    
   6 C6             0.5571     1.0600     1.8538 C.ar    
   7 C7             0.6163     1.9652     0.8105 C.ar    
   8 C8             1.5677    -2.1483     0.1389 C.3     
   9 C9             1.3096    -2.9627     1.3885 C.2     
  10 C10            0.7578    -2.6992    -1.0365 C.3     
  11 C11           -0.7105    -2.4701    -0.7861 C.2     
  12 N12           -1.6255    -2.9648    -1.6430 N.am    
  13 O13           -1.0687    -1.8404     0.1866 O.2     
  14 C14           -3.0520    -2.6547    -1.4763 C.3     
  15 C15           -3.8406    -3.9674    -1.4366 C.3     
  16 C16           -3.5181    -4.7896    -2.6864 C.3     
  17 C17           -2.0247    -5.1237    -2.7079 C.3     
  18 C18           -1.2149    -3.8195    -2.7653 C.3     
  19 N19           -4.2978    -6.0344    -2.6680 N.3     
  20 C20           -4.1042    -6.7956    -3.9100 C.3     
  21 C21           -4.8678    -8.1189    -3.8186 C.3     
  22 N22           -6.2932    -7.8441    -3.5895 N.3     
  23 C23           -6.4868    -7.0829    -2.3475 C.3     
  24 C24           -5.7232    -5.7597    -2.4389 C.3     
  25 H25           -6.6993    -7.3610    -4.3768 H       
  26 O26            0.2423    -3.1069     1.9462 O.2     
  27 N27            2.4841    -3.4962     1.7639 N.am    
  28 C28            3.0495    -2.3156    -0.1107 C.ar    
  29 C29            3.5264    -3.1367     0.9060 C.ar    
  30 C30            3.8921    -1.8280    -1.0852 C.ar    
  31 C31            5.2374    -2.1524    -1.0653 C.ar    
  32 C32            5.7346    -2.9766    -0.0507 C.ar    
  33 C33            4.8761    -3.4672     0.9327 C.ar    
  34 C34            2.4224    -6.1298     2.5604 C.ar    
  35 C35            1.1766    -6.5284     2.0973 C.ar    
  36 C36            3.4674    -7.0333     2.6005 C.ar    
  37 C37            3.2748    -8.3350     2.1795 C.ar    
  38 C38            2.0305    -8.7385     1.7155 C.ar    
  39 C39            0.9806    -7.8343     1.6747 C.ar    
  40 O40            1.8415   -10.0192     1.3019 O.3     
  41 O41            0.1493    -5.6396     2.0585 O.3     
  42 C42           -1.1052    -6.1191     1.5702 C.3     
  43 C43            2.9673   -10.8964     1.3722 C.3     
  44 O44            1.6529    -0.2104    -1.9151 O.3     
  45 C45            2.1197     0.1315    -4.2616 C.3     
  46 C46            1.5840     0.7517    -2.9695 C.3     
  47 S47            2.6742    -4.4686     3.0908 S.o2    
  48 O48            4.0408    -4.3704     3.4677 O.2     
  49 O49            1.6014    -4.1613     3.9705 O.2     
  50 C50            7.1252    -3.3175    -0.0221 C.1     
  51 N51            8.2283    -3.5879     0.0005 N.1     
  52 H52            1.0330     2.2505    -1.2664 H       
  53 H53            0.8189    -0.9755     2.4530 H       
  54 H54            0.2696     1.3925     2.8403 H       
  55 H55            0.3750     3.0037     0.9829 H       
  56 H56            1.0541    -2.1888    -1.9529 H       
  57 H57            0.9465    -3.7679    -1.1386 H       
  58 H58           -3.2010    -2.1105    -0.5437 H       
  59 H59           -3.3944    -2.0479    -2.3145 H       
  60 H60           -3.5617    -4.5326    -0.5473 H       
  61 H61           -4.9083    -3.7497    -1.4099 H       
  62 H62           -3.7742    -4.2140    -3.5759 H       
  63 H63           -1.7629    -5.6781    -1.8067 H       
  64 H64           -1.8000    -5.7291    -3.5861 H       
  65 H65           -1.4087    -3.3103    -3.7094 H       
  66 H66           -0.1519    -4.0455    -2.6811 H       
  67 H67           -4.4797    -6.2166    -4.7537 H       
  68 H68           -3.0424    -6.9975    -4.0510 H       
  69 H69           -4.7493    -8.6723    -4.7502 H       
  70 H70           -4.4739    -8.7097    -2.9916 H       
  71 H71           -7.5487    -6.8810    -2.2065 H       
  72 H72           -6.1113    -7.6619    -1.5038 H       
  73 H73           -5.8417    -5.2063    -1.5074 H       
  74 H74           -6.1171    -5.1689    -3.2659 H       
  75 H75            3.5023    -1.1920    -1.8662 H       
  76 H76            5.2605    -4.1037     1.7160 H       
  77 H77            4.4363    -6.7212     2.9612 H       
  78 H78            4.0931    -9.0390     2.2111 H       
  79 H79            0.0116    -8.1466     1.3143 H       
  80 H80           -1.8364    -5.3110     1.5921 H       
  81 H81           -0.9853    -6.4730     0.5463 H       
  82 H82           -1.4508    -6.9389     2.1999 H       
  83 H83            3.7729   -10.5041     0.7516 H       
  84 H84            3.3071   -10.9694     2.4053 H       
  85 H85            2.6806   -11.8849     1.0133 H       
  86 H86            2.1489     0.8900    -5.0438 H       
  87 H87            3.1252    -0.2528    -4.0904 H       
  88 H88            1.4666    -0.6845    -4.5709 H       
  89 H89            0.5479     1.0571    -3.1155 H       
  90 H90            2.1858     1.6218    -2.7074 H       
@<TRIPOS>BOND
   1    1   31 1
   2    2    3 ar
   3    2    7 ar
   4    2   52 1
   5    3    4 ar
   6    3   44 1
   7    4    5 ar
   8    4    8 1
   9    5    6 ar
  10    5   53 1
  11    6    7 ar
  12    6   54 1
  13    7   55 1
  14    8    9 1
  15    8   10 1
  16    8   28 1
  17    9   26 2
  18    9   27 am
  19   10   11 1
  20   10   56 1
  21   10   57 1
  22   11   12 am
  23   11   13 2
  24   12   14 1
  25   12   18 1
  26   14   15 1
  27   14   58 1
  28   14   59 1
  29   15   16 1
  30   15   60 1
  31   15   61 1
  32   16   17 1
  33   16   19 1
  34   16   62 1
  35   17   18 1
  36   17   63 1
  37   17   64 1
  38   18   65 1
  39   18   66 1
  40   19   20 1
  41   19   24 1
  42   20   21 1
  43   20   67 1
  44   20   68 1
  45   21   22 1
  46   21   69 1
  47   21   70 1
  48   22   23 1
  49   22   25 1
  50   23   24 1
  51   23   71 1
  52   23   72 1
  53   24   73 1
  54   24   74 1
  55   27   47 am
  56   27   29 1
  57   28   29 ar
  58   28   30 ar
  59   29   33 ar
  60   30   31 ar
  61   30   75 1
  62   31   32 ar
  63   32   33 ar
  64   32   50 1
  65   33   76 1
  66   34   35 ar
  67   34   36 ar
  68   34   47 1
  69   35   41 1
  70   35   39 ar
  71   36   37 ar
  72   36   77 1
  73   37   38 ar
  74   37   78 1
  75   38   39 ar
  76   38   40 1
  77   39   79 1
  78   40   43 1
  79   41   42 1
  80   42   80 1
  81   42   81 1
  82   42   82 1
  83   43   83 1
  84   43   84 1
  85   43   85 1
  86   44   46 1
  87   45   46 1
  88   45   86 1
  89   45   87 1
  90   45   88 1
  91   46   89 1
  92   46   90 1
  93   47   48 2
  94   47   49 2
  95   50   51 3

#	End of record

