#	Name: ASD01890277
#	Creating user name:	WinNT
#	Creation time:	15. 06. 2019 19:50

#	Modifying user name:	WinNT
#	Modification time:	15. 06. 2019 19:50

#	Program:	/corina/corina34_cracker 3.40 0067  02.08.2006

@<TRIPOS>MOLECULE
ASD01890277
  47   49    0    0    0
SMALL
NO_CHARGES


@<TRIPOS>ATOM
   1 C1            -0.0178     1.4581     0.0101 C.2     
   2 C2             0.0021    -0.0041     0.0020 C.2     
   3 C3             1.1795    -0.6627    -0.0128 C.2     
   4 C4             1.1999    -2.1695    -0.0210 C.3     
   5 C5             1.3188    -2.6700    -1.4620 C.3     
   6 O6             1.0271     2.0805     0.0034 O.2     
   7 O7            -1.1951     2.1167     0.0192 O.3     
   8 C8             2.4439     0.0905    -0.0208 C.ar    
   9 C9             2.7967     0.8833     1.0760 C.ar    
  10 C10            3.9833     1.5855     1.0610 C.ar    
  11 C11            4.8240     1.5076    -0.0357 C.ar    
  12 C12            4.4816     0.7256    -1.1251 C.ar    
  13 C13            3.3015     0.0125    -1.1228 C.ar    
  14 C14            0.1673    -4.8627    -1.5660 C.ar    
  15 C15            1.3392    -4.1769    -1.4703 C.ar    
  16 C16            2.5574    -4.8471    -1.3803 C.ar    
  17 C17            2.6110    -6.2073    -1.3850 C.ar    
  18 C18            1.4220    -6.9495    -1.4821 C.ar    
  19 C19            1.4374    -8.3549    -1.4907 C.ar    
  20 C20            0.2657    -9.0405    -1.5863 C.ar    
  21 C21           -0.9529    -8.3700    -1.6767 C.ar    
  22 C22           -1.0066    -7.0102    -1.6719 C.ar    
  23 C23            0.1827    -6.2677    -1.5736 C.ar    
  24 C24           -1.1397     3.5446     0.0267 C.3     
  25 C25           -2.5613     4.1101     0.0365 C.3     
  26 H26           -0.9258    -0.5567     0.0079 H       
  27 H27            2.0522    -2.5245     0.5584 H       
  28 H28            0.2777    -2.5478     0.4201 H       
  29 H29            0.4666    -2.3150    -2.0414 H       
  30 H30            2.2410    -2.2917    -1.9031 H       
  31 H31            2.1414     0.9456     1.9322 H       
  32 H32            4.2572     2.1982     1.9072 H       
  33 H33            5.7518     2.0603    -0.0416 H       
  34 H34            5.1425     0.6705    -1.9775 H       
  35 H35            3.0378    -0.6008    -1.9717 H       
  36 H36           -0.7698    -4.3298    -1.6310 H       
  37 H37            3.4729    -4.2790    -1.3059 H       
  38 H38            3.5626    -6.7133    -1.3150 H       
  39 H39            2.3742    -8.8879    -1.4220 H       
  40 H40            0.2803   -10.1204    -1.5927 H       
  41 H41           -1.8682    -8.9381    -1.7520 H       
  42 H42           -1.9580    -6.5042    -1.7433 H       
  43 H43           -0.6079     3.8829     0.9160 H       
  44 H44           -0.6164     3.8926    -0.8639 H       
  45 H45           -3.0846     3.7622     0.9271 H       
  46 H46           -2.5190     5.1993     0.0423 H       
  47 H47           -3.0931     3.7718    -0.8528 H       
@<TRIPOS>BOND
   1    1    2 1
   2    1    6 2
   3    1    7 1
   4    2    3 2
   5    2   26 1
   6    3    4 1
   7    3    8 1
   8    4    5 1
   9    4   27 1
  10    4   28 1
  11    5   15 1
  12    5   29 1
  13    5   30 1
  14    7   24 1
  15    8    9 ar
  16    8   13 ar
  17    9   10 ar
  18    9   31 1
  19   10   11 ar
  20   10   32 1
  21   11   12 ar
  22   11   33 1
  23   12   13 ar
  24   12   34 1
  25   13   35 1
  26   14   15 ar
  27   14   23 ar
  28   14   36 1
  29   15   16 ar
  30   16   17 ar
  31   16   37 1
  32   17   18 ar
  33   17   38 1
  34   18   19 ar
  35   18   23 ar
  36   19   20 ar
  37   19   39 1
  38   20   21 ar
  39   20   40 1
  40   21   22 ar
  41   21   41 1
  42   22   23 ar
  43   22   42 1
  44   24   25 1
  45   24   43 1
  46   24   44 1
  47   25   45 1
  48   25   46 1
  49   25   47 1

#	End of record

