#	Name: ASD04882181
#	Creating user name:	WinNT
#	Creation time:	15. 06. 2019 20:54

#	Modifying user name:	WinNT
#	Modification time:	15. 06. 2019 20:54

#	Program:	/corina/corina34_cracker 3.40 0067  02.08.2006

@<TRIPOS>MOLECULE
ASD04882181
  76   80    0    0    0
SMALL
NO_CHARGES


@<TRIPOS>ATOM
   1 C1             0.1255     1.4823    -0.4335 C.2     
   2 C2             0.1456     0.0187    -0.4840 C.2     
   3 N3             1.1861    -0.6594     0.0395 N.am    
   4 C4             1.1516    -2.0585     0.0989 C.ar    
   5 C5             2.3302    -2.7943    -0.0530 C.ar    
   6 C6             2.2975    -4.1829     0.0057 C.ar    
   7 C7             1.1043    -4.8384     0.2137 C.ar    
   8 C8            -0.0780    -4.1088     0.3668 C.ar    
   9 C9            -0.0471    -2.7125     0.3134 C.ar    
  10 N10            3.5388    -2.1356    -0.2639 N.3     
  11 C11            3.5444    -1.4483    -1.5628 C.3     
  12 C12            4.6712    -3.0664    -0.1589 C.3     
  13 C13            5.9814    -2.2914    -0.3174 C.3     
  14 N14            5.9870    -1.6041    -1.6163 N.3     
  15 C15            4.8546    -0.6734    -1.7213 C.3     
  16 C16            7.1993    -0.9434    -1.8279 C.ar    
  17 C17            7.9928    -1.2770    -2.9179 C.ar    
  18 C18            7.6114     0.0528    -0.9516 C.ar    
  19 C19            8.8104     0.7040    -1.1636 C.ar    
  20 C20            9.6007     0.3657    -2.2471 C.ar    
  21 C21            9.1911    -0.6216    -3.1241 C.ar    
  22 C22           -1.3561    -4.8114     0.5890 C.2     
  23 N23           -1.3842    -6.1577     0.6444 N.am    
  24 O24           -2.3841    -4.1758     0.7221 O.2     
  25 O25           -0.7775    -0.5854    -0.9989 O.2     
  26 C26           -0.8754     2.2927    -0.9243 C.2     
  27 O27            1.0810     2.2673     0.1067 O.3     
  28 C28            0.7276     3.5576    -0.0271 C.2     
  29 C29           -0.4913     3.6119    -0.6680 C.2     
  30 C30            7.5472    -2.3530    -3.8742 C.3     
  31 C31            1.4872     4.6847     0.4239 C.1     
  32 C32            2.1099     5.6087     0.7936 C.1     
  33 C33           -2.6534    -6.8554     0.8651 C.3     
  34 C34           -2.4084    -8.3655     0.8849 C.3     
  35 C35           -3.7339    -9.0942     1.1154 C.3     
  36 N36           -3.4994   -10.5402     1.1344 N.am    
  37 C37           -3.1838   -11.3121     2.3421 C.3     
  38 C38           -2.6033   -12.6510     1.8354 C.3     
  39 C39           -3.2449   -12.7622     0.4329 C.3     
  40 C40           -3.5513   -11.3313     0.0489 C.2     
  41 O41           -3.8003   -10.9520    -1.0758 O.2     
  42 H42            1.9587    -0.1786     0.3752 H       
  43 H43            3.2097    -4.7488    -0.1123 H       
  44 H44            1.0820    -5.9173     0.2581 H       
  45 H45           -0.9590    -2.1460     0.4318 H       
  46 H46            3.4573    -2.1830    -2.3633 H       
  47 H47            2.7041    -0.7558    -1.6114 H       
  48 H48            4.6524    -3.5534     0.8160 H       
  49 H49            4.5969    -3.8194    -0.9435 H       
  50 H50            6.0686    -1.5568     0.4831 H       
  51 H51            6.8217    -2.9840    -0.2688 H       
  52 H52            4.8734    -0.1863    -2.6962 H       
  53 H53            4.9289     0.0797    -0.9368 H       
  54 H54            6.9944     0.3179    -0.1057 H       
  55 H55            9.1313     1.4785    -0.4828 H       
  56 H56           10.5377     0.8771    -2.4110 H       
  57 H57            9.8106    -0.8834    -3.9691 H       
  58 H58           -0.5641    -6.6647     0.5382 H       
  59 H59           -1.7825     1.9703    -1.4137 H       
  60 H60           -1.0445     4.5037    -0.9229 H       
  61 H61            6.9555    -1.9065    -4.6734 H       
  62 H62            8.4214    -2.8448    -4.3008 H       
  63 H63            6.9424    -3.0859    -3.3403 H       
  64 H64            2.6669     6.4351     1.1243 H       
  65 H65           -3.0783    -6.5436     1.8192 H       
  66 H66           -3.3472    -6.6104     0.0609 H       
  67 H67           -1.9835    -8.6773    -0.0692 H       
  68 H68           -1.7146    -8.6105     1.6891 H       
  69 H69           -4.1588    -8.7824     2.0695 H       
  70 H70           -4.4278    -8.8492     0.3112 H       
  71 H71           -2.4444   -10.7843     2.9445 H       
  72 H72           -4.0884   -11.4891     2.9237 H       
  73 H73           -1.5167   -12.6032     1.7646 H       
  74 H74           -2.9152   -13.4778     2.4737 H       
  75 H75           -2.5440   -13.2077    -0.2730 H       
  76 H76           -4.1642   -13.3459     0.4791 H       
@<TRIPOS>BOND
   1    1    2 1
   2    1   27 1
   3    1   26 2
   4    2    3 am
   5    2   25 2
   6    3    4 1
   7    3   42 1
   8    4    5 ar
   9    4    9 ar
  10    5    6 ar
  11    5   10 1
  12    6    7 ar
  13    6   43 1
  14    7    8 ar
  15    7   44 1
  16    8    9 ar
  17    8   22 1
  18    9   45 1
  19   10   11 1
  20   10   12 1
  21   11   15 1
  22   11   46 1
  23   11   47 1
  24   12   13 1
  25   12   48 1
  26   12   49 1
  27   13   14 1
  28   13   50 1
  29   13   51 1
  30   14   15 1
  31   14   16 1
  32   15   52 1
  33   15   53 1
  34   16   17 ar
  35   16   18 ar
  36   17   30 1
  37   17   21 ar
  38   18   19 ar
  39   18   54 1
  40   19   20 ar
  41   19   55 1
  42   20   21 ar
  43   20   56 1
  44   21   57 1
  45   22   23 am
  46   22   24 2
  47   23   33 1
  48   23   58 1
  49   26   29 1
  50   26   59 1
  51   27   28 1
  52   28   29 2
  53   28   31 1
  54   29   60 1
  55   30   61 1
  56   30   62 1
  57   30   63 1
  58   31   32 3
  59   32   64 1
  60   33   34 1
  61   33   65 1
  62   33   66 1
  63   34   35 1
  64   34   67 1
  65   34   68 1
  66   35   36 1
  67   35   69 1
  68   35   70 1
  69   36   37 1
  70   36   40 am
  71   37   38 1
  72   37   71 1
  73   37   72 1
  74   38   39 1
  75   38   73 1
  76   38   74 1
  77   39   40 1
  78   39   75 1
  79   39   76 1
  80   40   41 2

#	End of record

