#	Name: ASD04880188
#	Creating user name:	WinNT
#	Creation time:	15. 06. 2019 20:53

#	Modifying user name:	WinNT
#	Modification time:	15. 06. 2019 20:53

#	Program:	/corina/corina34_cracker 3.40 0067  02.08.2006

@<TRIPOS>MOLECULE
ASD04880188
  44   46    0    0    0
SMALL
NO_CHARGES


@<TRIPOS>ATOM
   1 C1            -0.0184     1.5028     0.0103 C.2     
   2 C2             0.0021    -0.0041     0.0020 C.3     
   3 O3             1.0239     2.1236     0.0037 O.2     
   4 N4            -1.1946     2.1607     0.0195 N.am    
   5 N5            -2.4552     1.5672     0.0227 N.2     
   6 C6            -3.4323     2.4069     0.0325 C.2     
   7 C7            -2.8865     3.8169     0.0376 C.3     
   8 C8            -1.3572     3.6232     0.0341 C.3     
   9 C9            -4.8622     2.0481     0.0375 C.ar    
  10 C10           -5.2474     0.7050     0.0320 C.ar    
  11 C11           -6.5895     0.3743     0.0372 C.ar    
  12 C12           -7.5546     1.3790     0.0475 C.ar    
  13 C13           -7.1726     2.7127     0.0530 C.ar    
  14 C14           -5.8356     3.0503     0.0537 C.ar    
  15 O15           -8.8740     1.0516     0.0517 O.3     
  16 C16           -9.8102     2.1312     0.0623 C.3     
  17 O17           -6.9679    -0.9320     0.0319 O.3     
  18 C18           -5.9254    -1.9093     0.0209 C.3     
  19 C19            2.0956    -0.7149     1.1754 C.ar    
  20 C20            1.4295    -0.4870    -0.0142 C.ar    
  21 C21            3.4050    -1.1580     1.1606 C.ar    
  22 C22            4.0482    -1.3730    -0.0440 C.ar    
  23 C23            3.3820    -1.1455    -1.2336 C.ar    
  24 C24            2.0726    -0.7025    -1.2187 C.ar    
  25 H25           -0.4983    -0.3791     0.8948 H       
  26 H26           -0.5153    -0.3696    -0.8850 H       
  27 H27           -3.2091     4.3550    -0.8537 H       
  28 H28           -3.1997     4.3449     0.9384 H       
  29 H29           -0.9128     4.0496     0.9334 H       
  30 H30           -0.9181     4.0669    -0.8594 H       
  31 H31           -4.4982    -0.0729     0.0234 H       
  32 H32           -7.9241     3.4883     0.0609 H       
  33 H33           -5.5410     4.0893     0.0624 H       
  34 H34           -9.6642     2.7474    -0.8249 H       
  35 H35          -10.8246     1.7323     0.0647 H       
  36 H36           -9.6559     2.7371     0.9551 H       
  37 H37           -6.3632    -2.9075     0.0176 H       
  38 H38           -5.3136    -1.7780    -0.8716 H       
  39 H39           -5.3042    -1.7879     0.9084 H       
  40 H40            1.5945    -0.5426     2.1165 H       
  41 H41            3.9255    -1.3357     2.0900 H       
  42 H42            5.0714    -1.7185    -0.0556 H       
  43 H43            3.8845    -1.3135    -2.1747 H       
  44 H44            1.5522    -0.5244    -2.1482 H       
@<TRIPOS>BOND
   1    1    2 1
   2    1    3 2
   3    1    4 am
   4    2   20 1
   5    2   25 1
   6    2   26 1
   7    4    5 1
   8    4    8 1
   9    5    6 2
  10    6    7 1
  11    6    9 1
  12    7    8 1
  13    7   27 1
  14    7   28 1
  15    8   29 1
  16    8   30 1
  17    9   10 ar
  18    9   14 ar
  19   10   11 ar
  20   10   31 1
  21   11   12 ar
  22   11   17 1
  23   12   13 ar
  24   12   15 1
  25   13   14 ar
  26   13   32 1
  27   14   33 1
  28   15   16 1
  29   16   34 1
  30   16   35 1
  31   16   36 1
  32   17   18 1
  33   18   37 1
  34   18   38 1
  35   18   39 1
  36   19   20 ar
  37   19   21 ar
  38   19   40 1
  39   20   24 ar
  40   21   22 ar
  41   21   41 1
  42   22   23 ar
  43   22   42 1
  44   23   24 ar
  45   23   43 1
  46   24   44 1

#	End of record

