#	Name: ASD03092217
#	Creating user name:	WinNT
#	Creation time:	15. 06. 2019 20:32

#	Modifying user name:	WinNT
#	Modification time:	15. 06. 2019 20:32

#	Program:	/corina/corina34_cracker 3.40 0067  02.08.2006

@<TRIPOS>MOLECULE
ASD03092217
  61   65    0    0    0
SMALL
NO_CHARGES


@<TRIPOS>ATOM
   1 C1            -0.0046     1.4084     0.1223 C.3     
   2 O2             0.0075    -0.0189     0.1916 O.3     
   3 C3            -1.1972    -0.6491     0.1529 C.ar    
   4 C4            -2.3637     0.0926     0.0448 C.ar    
   5 C5            -3.5907    -0.5490     0.0054 C.ar    
   6 O6            -4.7357     0.1772    -0.1011 O.3     
   7 C7            -4.5990     1.5981    -0.1677 C.3     
   8 C8            -3.6502    -1.9388     0.0745 C.ar    
   9 N9            -4.8911    -2.5910     0.0344 N.pl3   
  10 C10           -4.9450    -3.9715    -0.0714 C.2     
  11 N11           -3.9248    -4.7485    -0.2683 N.2     
  12 C12           -4.1695    -6.0556    -0.3426 C.2     
  13 C13           -5.4590    -6.4075    -0.2024 C.2     
  14 C14           -5.9998    -7.8135    -0.2461 C.3     
  15 C15           -5.9962    -8.3964     1.1436 C.2     
  16 O16           -5.5940    -7.7354     2.0775 O.2     
  17 N17           -6.4399    -9.6525     1.3486 N.am    
  18 C18           -6.9478   -10.5649     0.3079 C.3     
  19 C19           -6.7330   -11.9855     0.8869 C.3     
  20 C20           -7.0444   -11.7597     2.3901 C.3     
  21 C21           -6.4916   -10.3419     2.6461 C.3     
  22 S22           -6.4079    -4.9443     0.0481 S.3     
  23 C23           -3.0943    -7.0530    -0.5651 C.ar    
  24 C24           -3.1697    -8.3073     0.0371 C.ar    
  25 C25           -2.1678    -9.2333    -0.1704 C.ar    
  26 C26           -1.0831    -8.9204    -0.9773 C.ar    
  27 O27           -0.1017    -9.8461    -1.1619 O.3     
  28 C28            0.7803    -9.6372    -2.2700 C.3     
  29 C29            1.2197    -8.1668    -2.2642 C.3     
  30 O30            0.0503    -7.3493    -2.3823 O.3     
  31 C31           -1.0041    -7.6705    -1.5833 C.ar    
  32 C32           -2.0092    -6.7398    -1.3816 C.ar    
  33 C33           -2.4809    -2.6774     0.1827 C.ar    
  34 C34           -1.2572    -2.0344     0.2160 C.ar    
  35 Cl35           0.2055    -2.9605     0.3437 Cl      
  36 H36            1.0183     1.7828     0.1629 H       
  37 H37           -0.4698     1.7229    -0.8118 H       
  38 H38           -0.5714     1.8082     0.9632 H       
  39 H39           -2.3157     1.1702    -0.0083 H       
  40 H40           -4.1065     1.9584     0.7355 H       
  41 H41           -4.0008     1.8651    -1.0388 H       
  42 H42           -5.5853     2.0545    -0.2505 H       
  43 H43           -5.7115    -2.0757     0.0807 H       
  44 H44           -7.0194    -7.7987    -0.6313 H       
  45 H45           -5.3741    -8.4234    -0.8976 H       
  46 H46           -8.0078   -10.3842     0.1295 H       
  47 H47           -6.3805   -10.4414    -0.6146 H       
  48 H48           -7.4313   -12.6969     0.4459 H       
  49 H49           -5.7030   -12.3132     0.7463 H       
  50 H50           -8.1185   -11.7973     2.5713 H       
  51 H51           -6.5224   -12.4917     3.0063 H       
  52 H52           -5.4906   -10.4038     3.0732 H       
  53 H53           -7.1540    -9.8049     3.3251 H       
  54 H54           -4.0119    -8.5545     0.6664 H       
  55 H55           -2.2280   -10.2050     0.2971 H       
  56 H56            1.6535   -10.2821    -2.1714 H       
  57 H57            0.2602    -9.8617    -3.2012 H       
  58 H58            1.7337    -7.9404    -1.3300 H       
  59 H59            1.8861    -7.9789    -3.1060 H       
  60 H60           -1.9503    -5.7702    -1.8535 H       
  61 H61           -2.5260    -3.7551     0.2363 H       
@<TRIPOS>BOND
   1    1    2 1
   2    1   36 1
   3    1   37 1
   4    1   38 1
   5    2    3 1
   6    3   34 ar
   7    3    4 ar
   8    4    5 ar
   9    4   39 1
  10    5    6 1
  11    5    8 ar
  12    6    7 1
  13    7   40 1
  14    7   41 1
  15    7   42 1
  16    8    9 1
  17    8   33 ar
  18    9   10 1
  19    9   43 1
  20   10   22 1
  21   10   11 2
  22   11   12 1
  23   12   13 2
  24   12   23 1
  25   13   14 1
  26   13   22 1
  27   14   15 1
  28   14   44 1
  29   14   45 1
  30   15   16 2
  31   15   17 am
  32   17   21 1
  33   17   18 1
  34   18   19 1
  35   18   46 1
  36   18   47 1
  37   19   20 1
  38   19   48 1
  39   19   49 1
  40   20   21 1
  41   20   50 1
  42   20   51 1
  43   21   52 1
  44   21   53 1
  45   23   32 ar
  46   23   24 ar
  47   24   25 ar
  48   24   54 1
  49   25   26 ar
  50   25   55 1
  51   26   31 ar
  52   26   27 1
  53   27   28 1
  54   28   29 1
  55   28   56 1
  56   28   57 1
  57   29   30 1
  58   29   58 1
  59   29   59 1
  60   30   31 1
  61   31   32 ar
  62   32   60 1
  63   33   34 ar
  64   33   61 1
  65   34   35 1

#	End of record

