#	Name: ASD08170166
#	Creating user name:	WinNT
#	Creation time:	15. 06. 2019 21:17

#	Modifying user name:	WinNT
#	Modification time:	15. 06. 2019 21:17

#	Program:	/corina/corina34_cracker 3.40 0067  02.08.2006

@<TRIPOS>MOLECULE
ASD08170166
  69   72    0    0    0
SMALL
NO_CHARGES


@<TRIPOS>ATOM
   1 Cl1            0.0000     0.0000     0.0000 Cl      
   2 H2             0.0000     1.3700     0.0000 H       
   3 Cl3            5.0000     6.3700     5.0000 Cl      
   4 H4             5.0000     7.7400     5.0000 H       
   5 C5            12.6541    24.8731    15.6234 C.3     
   6 C6            15.8266    27.6486    15.6080 C.3     
   7 C7            15.9784    29.1710    15.6147 C.3     
   8 C8            17.4420    29.5299    15.6027 C.2     
   9 C9            12.6745    23.3663    15.6151 C.2     
  10 S10           18.4660    29.7701    17.0187 S.3     
  11 C11           19.7888    30.1018    15.9819 C.2     
  12 N12           19.3852    30.0121    14.7505 N.2     
  13 N13           18.1753    29.7120    14.5507 N.2     
  14 S14           12.6750    22.3336    14.1850 S.3     
  15 N15           12.7005    22.5968    16.6567 N.2     
  16 N16           12.7147    21.3532    16.4401 N.2     
  17 C17           12.7041    20.9563    15.2033 C.2     
  18 N18           12.7163    19.6327    14.7766 N.am    
  19 C19           12.7418    18.6334    15.6805 C.2     
  20 O20           12.7542    18.8884    16.8662 O.2     
  21 N21           21.0805    30.4154    16.3908 N.am    
  22 C22           22.0379    30.6567    15.4733 C.2     
  23 C23           23.4376    30.9966    15.9164 C.3     
  24 O24           21.7729    30.6002    14.2912 O.2     
  25 C25           12.7551    17.1992    15.2181 C.3     
  26 C26           12.7834    16.2854    16.4161 C.2     
  27 C27           14.0895    25.4027    15.6125 C.3     
  28 C28           11.7085    15.8202    17.0211 C.2     
  29 C29           24.3076    31.2185    14.7061 C.2     
  30 C30           24.4773    32.3856    14.1172 C.2     
  31 C31           11.9730    14.9536    18.1582 C.ar    
  32 C32           13.3431    14.7898    18.3790 C.ar    
  33 S33           14.2498    15.6999    17.1775 S.3     
  34 C34           25.3620    32.3661    12.9635 C.ar    
  35 C35           25.8604    31.0849    12.7126 C.ar    
  36 S36           25.2286    29.9589    13.9072 S.3     
  37 S37           14.0649    27.2165    15.6225 S.3     
  38 C38           25.7528    33.4264    12.1174 C.ar    
  39 C39           26.6002    33.2017    11.0764 C.ar    
  40 C40           27.0939    31.9277    10.8294 C.ar    
  41 C41           26.7307    30.8769    11.6378 C.ar    
  42 C42           11.0622    14.2978    19.0146 C.ar    
  43 C43           11.5136    13.5203    20.0363 C.ar    
  44 C44           12.8755    13.3593    20.2534 C.ar    
  45 C45           13.7848    13.9855    19.4345 C.ar    
  46 H46           12.1269    25.2342    14.7403 H       
  47 H47           12.1439    25.2246    16.5202 H       
  48 H48           16.2933    27.2408    14.7113 H       
  49 H49           16.3103    27.2313    16.4912 H       
  50 H50           15.4947    29.5883    14.7315 H       
  51 H51           15.5117    29.5787    16.5114 H       
  52 H52           12.7064    19.4288    13.8283 H       
  53 H53           21.2924    30.4606    17.3363 H       
  54 H54           23.4173    31.9036    16.5206 H       
  55 H55           23.8410    30.1749    16.5082 H       
  56 H56           11.8598    16.9990    14.6294 H       
  57 H57           13.6395    17.0230    14.6058 H       
  58 H58           14.6166    25.0416    16.4956 H       
  59 H59           14.5997    25.0512    14.7157 H       
  60 H60           10.7077    16.0645    16.6970 H       
  61 H61           23.9955    33.2875    14.4648 H       
  62 H62           25.3764    34.4226    12.2971 H       
  63 H63           26.8910    34.0217    10.4365 H       
  64 H64           27.7655    31.7619    10.0000 H       
  65 H65           27.1174    29.8878    11.4416 H       
  66 H66           10.0000    14.4141    18.8580 H       
  67 H67           10.8060    13.0244    20.6843 H       
  68 H68           13.2214    12.7400    21.0678 H       
  69 H69           14.8431    13.8571    19.6074 H       
@<TRIPOS>BOND
   1    1    2 1
   2    3    4 1
   3    5    9 1
   4    5   27 1
   5    5   46 1
   6    5   47 1
   7    6    7 1
   8    6   37 1
   9    6   48 1
  10    6   49 1
  11    7    8 1
  12    7   50 1
  13    7   51 1
  14    8   10 1
  15    8   13 2
  16    9   14 1
  17    9   15 2
  18   10   11 1
  19   11   12 2
  20   11   21 1
  21   12   13 1
  22   14   17 1
  23   15   16 1
  24   16   17 2
  25   17   18 1
  26   18   19 am
  27   18   52 1
  28   19   20 2
  29   19   25 1
  30   21   22 am
  31   21   53 1
  32   22   23 1
  33   22   24 2
  34   23   29 1
  35   23   54 1
  36   23   55 1
  37   25   26 1
  38   25   56 1
  39   25   57 1
  40   26   28 2
  41   26   33 1
  42   27   37 1
  43   27   58 1
  44   27   59 1
  45   28   31 1
  46   28   60 1
  47   29   30 2
  48   29   36 1
  49   30   34 1
  50   30   61 1
  51   31   32 ar
  52   31   42 ar
  53   32   33 1
  54   32   45 ar
  55   34   35 ar
  56   34   38 ar
  57   35   36 1
  58   35   41 ar
  59   38   39 ar
  60   38   62 1
  61   39   40 ar
  62   39   63 1
  63   40   41 ar
  64   40   64 1
  65   41   65 1
  66   42   43 ar
  67   42   66 1
  68   43   44 ar
  69   43   67 1
  70   44   45 ar
  71   44   68 1
  72   45   69 1

#	End of record

