#	Name: ASD01150418
#	Creating user name:	WinNT
#	Creation time:	15. 06. 2019 19:04

#	Modifying user name:	WinNT
#	Modification time:	15. 06. 2019 19:04

#	Program:	/corina/corina34_cracker 3.40 0067  02.08.2006

@<TRIPOS>MOLECULE
ASD01150418
  48   50    0    0    0
SMALL
NO_CHARGES


@<TRIPOS>ATOM
   1 C1            -0.0169     1.3894     0.7950 C.ar    
   2 C2             0.1197     0.0206     0.9231 C.ar    
   3 C3             1.0297    -0.6628     0.1364 C.ar    
   4 C4             1.8093     0.0274    -0.7857 C.ar    
   5 C5             1.6733     1.4016    -0.9155 C.ar    
   6 C6             0.7593     2.0837    -0.1245 C.ar    
   7 N7             0.6194     3.4709    -0.2535 N.am    
   8 C8            -0.6080     4.0046    -0.3856 C.2     
   9 N9            -0.7759     5.3344    -0.5116 N.am    
  10 C10            0.2958     6.1539    -0.5067 C.2     
  11 C11            1.6352     5.5775    -0.3626 C.2     
  12 N12            1.7585     4.2846    -0.2375 N.2     
  13 O13            0.1519     7.3572    -0.6210 O.2     
  14 C14           -2.1231     5.8919    -0.6546 C.3     
  15 O15           -1.5806     3.2751    -0.3917 O.2     
  16 C16           -2.6848     6.2043     0.7085 C.ar    
  17 C17           -2.4793     7.4502     1.2712 C.ar    
  18 C18           -2.9930     7.7398     2.5220 C.ar    
  19 C19           -3.7130     6.7843     3.2123 C.ar    
  20 C20           -3.9210     5.5332     2.6495 C.ar    
  21 C21           -3.4095     5.2471     1.3923 C.ar    
  22 N22            2.7308    -0.6642    -1.5818 N.am    
  23 C23            3.8397    -0.0400    -2.0259 C.2     
  24 O24            4.0064     1.1388    -1.7936 O.2     
  25 C25            4.8725    -0.8065    -2.8113 C.3     
  26 C26            2.8525     6.4657    -0.3534 C.3     
  27 F27            1.1614    -2.0013     0.2642 F       
  28 O28           -4.6287     4.5913     3.3269 O.3     
  29 C29           -5.1297     4.9574     4.6142 C.3     
  30 H30           -0.7313     1.9197     1.4072 H       
  31 H31           -0.4847    -0.5168     1.6388 H       
  32 H32            2.2775     1.9399    -1.6307 H       
  33 H33           -2.0771     6.8058    -1.2468 H       
  34 H34           -2.7651     5.1668    -1.1547 H       
  35 H35           -1.9163     8.1985     0.7331 H       
  36 H36           -2.8309     8.7137     2.9596 H       
  37 H37           -4.1134     7.0107     4.1894 H       
  38 H38           -3.5700     4.2740     0.9521 H       
  39 H39            2.5711    -1.5924    -1.8135 H       
  40 H40            4.6361    -0.7505    -3.8739 H       
  41 H41            5.8575    -0.3744    -2.6349 H       
  42 H42            4.8708    -1.8490    -2.4931 H       
  43 H43            3.0740     6.7679     0.6702 H       
  44 H44            3.7029     5.9210    -0.7635 H       
  45 H45            2.6611     7.3508    -0.9602 H       
  46 H46           -4.2973     5.2233     5.2658 H       
  47 H47           -5.7997     5.8113     4.5139 H       
  48 H48           -5.6741     4.1170     5.0447 H       
@<TRIPOS>BOND
   1    1    2 ar
   2    1    6 ar
   3    1   30 1
   4    2    3 ar
   5    2   31 1
   6    3    4 ar
   7    3   27 1
   8    4    5 ar
   9    4   22 1
  10    5    6 ar
  11    5   32 1
  12    6    7 1
  13    7    8 am
  14    7   12 1
  15    8    9 am
  16    8   15 2
  17    9   10 am
  18    9   14 1
  19   10   11 1
  20   10   13 2
  21   11   12 2
  22   11   26 1
  23   14   16 1
  24   14   33 1
  25   14   34 1
  26   16   17 ar
  27   16   21 ar
  28   17   18 ar
  29   17   35 1
  30   18   19 ar
  31   18   36 1
  32   19   20 ar
  33   19   37 1
  34   20   21 ar
  35   20   28 1
  36   21   38 1
  37   22   23 am
  38   22   39 1
  39   23   24 2
  40   23   25 1
  41   25   40 1
  42   25   41 1
  43   25   42 1
  44   26   43 1
  45   26   44 1
  46   26   45 1
  47   28   29 1
  48   29   46 1
  49   29   47 1
  50   29   48 1

#	End of record

