#	Name: ASD01790011
#	Creating user name:	WinNT
#	Creation time:	15. 06. 2019 19:23

#	Modifying user name:	WinNT
#	Modification time:	15. 06. 2019 19:23

#	Program:	/corina/corina34_cracker 3.40 0067  02.08.2006

@<TRIPOS>MOLECULE
ASD01790011
  71   71    0    0    0
SMALL
NO_CHARGES


@<TRIPOS>ATOM
   1 C1            -0.0168     1.3900     0.0097 C.ar    
   2 C2             0.0021    -0.0041     0.0020 C.ar    
   3 C3            -1.1889    -0.7178     0.0100 C.ar    
   4 C4            -2.3948    -0.0518     0.0256 C.ar    
   5 C5            -2.4212     1.3456     0.0334 C.ar    
   6 C6            -1.2221     2.0641     0.0306 C.ar    
   7 O7             1.1516     2.0859     0.0023 O.3     
   8 O8             1.1880    -0.6653    -0.0138 O.3     
   9 C9            -3.7111     2.0603     0.0501 C.2     
  10 O10           -4.8659     1.3661     0.0579 O.3     
  11 O11           -3.7324     3.2751     0.0568 O.2     
  12 C12           -6.0973     2.1353     0.0743 C.3     
  13 C13           -7.2941     1.1820     0.0812 C.3     
  14 C14           -8.5916     1.9926     0.0985 C.3     
  15 C15           -9.7884     1.0393     0.1053 C.3     
  16 C16          -11.0859     1.8498     0.1226 C.3     
  17 C17          -12.2826     0.8966     0.1295 C.3     
  18 C18          -13.5802     1.7071     0.1468 C.3     
  19 C19          -14.7769     0.7538     0.1536 C.3     
  20 C20          -16.0745     1.5644     0.1709 C.3     
  21 C21          -17.2712     0.6111     0.1778 C.3     
  22 C22          -18.5688     1.4216     0.1951 C.3     
  23 C23          -19.7655     0.4684     0.2019 C.3     
  24 C24          -21.0630     1.2789     0.2192 C.3     
  25 C25          -22.2598     0.3257     0.2261 C.3     
  26 C26          -23.5573     1.1362     0.2434 C.3     
  27 C27          -24.7540     0.1829     0.2502 C.3     
  28 C28          -26.0516     0.9934     0.2675 C.3     
  29 C29          -27.2483     0.0402     0.2744 C.3     
  30 H30           -1.1699    -1.7976     0.0037 H       
  31 H31           -3.3197    -0.6094     0.0315 H       
  32 H32           -1.2382     3.1440     0.0366 H       
  33 H33            1.4811     2.2919    -0.8832 H       
  34 H34            1.5406    -0.8616     0.8650 H       
  35 H35           -6.1244     2.7588     0.9680 H       
  36 H36           -6.1421     2.7683    -0.8119 H       
  37 H37           -7.2670     0.5585    -0.8125 H       
  38 H38           -7.2493     0.5490     0.9674 H       
  39 H39           -8.6186     2.6161     0.9921 H       
  40 H40           -8.6364     2.6256    -0.7877 H       
  41 H41           -9.7613     0.4158    -0.7883 H       
  42 H42           -9.7435     0.4063     0.9915 H       
  43 H43          -11.1129     2.4733     1.0163 H       
  44 H44          -11.1307     2.4829    -0.7636 H       
  45 H45          -12.2556     0.2731    -0.7642 H       
  46 H46          -12.2378     0.2635     1.0157 H       
  47 H47          -13.6072     2.3306     1.0404 H       
  48 H48          -13.6250     2.3401    -0.7394 H       
  49 H49          -14.7499     0.1303    -0.7400 H       
  50 H50          -14.7321     0.1208     1.0398 H       
  51 H51          -16.1015     2.1879     1.0646 H       
  52 H52          -16.1193     2.1974    -0.7153 H       
  53 H53          -17.2442    -0.0124    -0.7159 H       
  54 H54          -17.2264    -0.0219     1.0640 H       
  55 H55          -18.5958     2.0451     1.0887 H       
  56 H56          -18.6136     2.0547    -0.6911 H       
  57 H57          -19.7385    -0.1551    -0.6917 H       
  58 H58          -19.7207    -0.1647     1.0881 H       
  59 H59          -21.0901     1.9024     1.1129 H       
  60 H60          -21.1078     1.9120    -0.6670 H       
  61 H61          -22.2327    -0.2978    -0.6676 H       
  62 H62          -22.2150    -0.3074     1.1123 H       
  63 H63          -23.5843     1.7597     1.1370 H       
  64 H64          -23.6021     1.7692    -0.6428 H       
  65 H65          -24.7270    -0.4406    -0.6434 H       
  66 H66          -24.7092    -0.4501     1.1364 H       
  67 H67          -26.0786     1.6170     1.1612 H       
  68 H68          -26.0964     1.6265    -0.6186 H       
  69 H69          -27.2213    -0.5833    -0.6193 H       
  70 H70          -27.2035    -0.5929     1.1606 H       
  71 H71          -28.1727     0.6176     0.2867 H       
@<TRIPOS>BOND
   1    1    2 ar
   2    1    7 1
   3    1    6 ar
   4    2    3 ar
   5    2    8 1
   6    3    4 ar
   7    3   30 1
   8    4    5 ar
   9    4   31 1
  10    5    6 ar
  11    5    9 1
  12    6   32 1
  13    7   33 1
  14    8   34 1
  15    9   10 1
  16    9   11 2
  17   10   12 1
  18   12   13 1
  19   12   35 1
  20   12   36 1
  21   13   14 1
  22   13   37 1
  23   13   38 1
  24   14   15 1
  25   14   39 1
  26   14   40 1
  27   15   16 1
  28   15   41 1
  29   15   42 1
  30   16   17 1
  31   16   43 1
  32   16   44 1
  33   17   18 1
  34   17   45 1
  35   17   46 1
  36   18   19 1
  37   18   47 1
  38   18   48 1
  39   19   20 1
  40   19   49 1
  41   19   50 1
  42   20   21 1
  43   20   51 1
  44   20   52 1
  45   21   22 1
  46   21   53 1
  47   21   54 1
  48   22   23 1
  49   22   55 1
  50   22   56 1
  51   23   24 1
  52   23   57 1
  53   23   58 1
  54   24   25 1
  55   24   59 1
  56   24   60 1
  57   25   26 1
  58   25   61 1
  59   25   62 1
  60   26   27 1
  61   26   63 1
  62   26   64 1
  63   27   28 1
  64   27   65 1
  65   27   66 1
  66   28   29 1
  67   28   67 1
  68   28   68 1
  69   29   69 1
  70   29   70 1
  71   29   71 1

#	End of record

