#	Name: ASD09740585
#	Creating user name:	WinNT
#	Creation time:	15. 06. 2019 21:23

#	Modifying user name:	WinNT
#	Modification time:	15. 06. 2019 21:23

#	Program:	/corina/corina34_cracker 3.40 0067  02.08.2006

@<TRIPOS>MOLECULE
ASD09740585
  73   77    0    0    0
SMALL
NO_CHARGES


@<TRIPOS>ATOM
   1 N1            -1.1506     0.6782    -0.3575 N.2     
   2 C2            -1.0217    -0.5924    -0.0673 C.2     
   3 C3            -0.1801     1.4722    -0.0009 C.2     
   4 S4             1.0722     0.5321     0.8060 S.3     
   5 C5             0.1172    -0.9313     0.5755 C.2     
   6 C6            -0.1369     2.9301    -0.2370 C.ar    
   7 C7            -1.1931     3.5616    -0.8894 C.ar    
   8 C8             0.9616     3.6768     0.1996 C.ar    
   9 C9             1.0068     5.0370    -0.0176 C.ar    
  10 C10           -0.0375     5.6758    -0.6707 C.ar    
  11 C11           -1.1471     4.9373    -1.1090 C.ar    
  12 O12            0.0120     7.0151    -0.8810 O.3     
  13 C13            1.2198     7.6851    -0.5145 C.3     
  14 C14            1.3639     8.9648    -1.3407 C.3     
  15 C15            1.1745     8.0407     0.9729 C.3     
  16 C16           -2.2262     5.5938    -1.7837 C.1     
  17 N17           -3.0822     6.1146    -2.3190 N.1     
  18 C18            0.4964    -2.2921     1.0098 C.ar    
  19 C19            1.7583    -2.8023     0.6913 C.ar    
  20 C20            2.1061    -4.0735     1.0996 C.ar    
  21 C21            1.2045    -4.8385     1.8232 C.ar    
  22 C22           -0.0449    -4.3386     2.1405 C.ar    
  23 C23           -0.4025    -3.0671     1.7431 C.ar    
  24 C24            2.9039    -2.1781    -0.0760 C.3     
  25 C25            4.1405    -3.0298     0.2815 C.3     
  26 C26            3.5109    -4.3940     0.6350 C.3     
  27 N27            3.4706    -5.2571    -0.5480 N.am    
  28 S28            4.3403    -6.6661    -0.5751 S.o2    
  29 O29            4.0435    -7.2369    -1.8421 O.2     
  30 O30            5.6633    -6.2677    -0.2428 O.2     
  31 C31            3.6231    -7.6663     0.7575 C.3     
  32 C32            4.2583    -9.0582     0.7488 C.3     
  33 N33            3.6776    -9.8682     1.8280 N.3     
  34 C34            2.2544   -10.1321     1.5804 C.3     
  35 C35            1.6495   -10.8502     2.7889 C.3     
  36 C36            2.3985   -12.1651     3.0227 C.3     
  37 C37            3.8859   -11.8662     3.2298 C.3     
  38 C38            4.4259   -11.1187     2.0085 C.3     
  39 O39            4.6007   -13.0928     3.3930 O.3     
  40 H40           -1.7762    -1.3211    -0.3245 H       
  41 H41           -2.0443     2.9874    -1.2243 H       
  42 H42            1.7775     3.1859     0.7092 H       
  43 H43            1.8583     5.6080     0.3222 H       
  44 H44            2.0706     7.0312    -0.7060 H       
  45 H45            0.5132     9.6187    -1.1491 H       
  46 H46            2.2852     9.4759    -1.0611 H       
  47 H47            1.3962     8.7115    -2.4003 H       
  48 H48            1.0718     7.1291     1.5615 H       
  49 H49            2.0958     8.5519     1.2525 H       
  50 H50            0.3238     8.6946     1.1644 H       
  51 H51            1.4802    -5.8331     2.1413 H       
  52 H52           -0.7402    -4.9429     2.7042 H       
  53 H53           -1.3783    -2.6762     1.9911 H       
  54 H54            2.7105    -2.2234    -1.1478 H       
  55 H55            3.0520    -1.1452     0.2391 H       
  56 H56            4.8087    -3.1216    -0.5747 H       
  57 H57            4.6646    -2.6106     1.1404 H       
  58 H58            4.0737    -4.8742     1.4355 H       
  59 H59            2.9345    -5.0033    -1.3155 H       
  60 H60            3.8152    -7.1853     1.7166 H       
  61 H61            2.5476    -7.7568     0.6054 H       
  62 H62            4.0662    -9.5393    -0.2102 H       
  63 H63            5.3339    -8.9677     0.9010 H       
  64 H64            1.7326    -9.1887     1.4199 H       
  65 H65            2.1500   -10.7598     0.6953 H       
  66 H66            1.7411   -10.2173     3.6716 H       
  67 H67            0.5970   -11.0598     2.5984 H       
  68 H68            1.9994   -12.6591     3.9086 H       
  69 H69            2.2746   -12.8140     2.1557 H       
  70 H70            4.0127   -11.2493     4.1194 H       
  71 H71            4.3114   -11.7418     1.1214 H       
  72 H72            5.4814   -10.8919     2.1589 H       
  73 H73            4.3082   -13.6210     4.1483 H       
@<TRIPOS>BOND
   1    1    2 1
   2    1    3 2
   3    2    5 2
   4    2   40 1
   5    3    4 1
   6    3    6 1
   7    4    5 1
   8    5   18 1
   9    6    7 ar
  10    6    8 ar
  11    7   11 ar
  12    7   41 1
  13    8    9 ar
  14    8   42 1
  15    9   10 ar
  16    9   43 1
  17   10   11 ar
  18   10   12 1
  19   11   16 1
  20   12   13 1
  21   13   14 1
  22   13   15 1
  23   13   44 1
  24   14   45 1
  25   14   46 1
  26   14   47 1
  27   15   48 1
  28   15   49 1
  29   15   50 1
  30   16   17 3
  31   18   19 ar
  32   18   23 ar
  33   19   20 ar
  34   19   24 1
  35   20   21 ar
  36   20   26 1
  37   21   22 ar
  38   21   51 1
  39   22   23 ar
  40   22   52 1
  41   23   53 1
  42   24   25 1
  43   24   54 1
  44   24   55 1
  45   25   26 1
  46   25   56 1
  47   25   57 1
  48   26   27 1
  49   26   58 1
  50   27   28 am
  51   27   59 1
  52   28   29 2
  53   28   30 2
  54   28   31 1
  55   31   32 1
  56   31   60 1
  57   31   61 1
  58   32   33 1
  59   32   62 1
  60   32   63 1
  61   33   34 1
  62   33   38 1
  63   34   35 1
  64   34   64 1
  65   34   65 1
  66   35   36 1
  67   35   66 1
  68   35   67 1
  69   36   37 1
  70   36   68 1
  71   36   69 1
  72   37   38 1
  73   37   39 1
  74   37   70 1
  75   38   71 1
  76   38   72 1
  77   39   73 1

#	End of record

