#	Name: ASD01810244
#	Creating user name:	WinNT
#	Creation time:	15. 06. 2019 19:24

#	Modifying user name:	WinNT
#	Modification time:	15. 06. 2019 19:24

#	Program:	/corina/corina34_cracker 3.40 0067  02.08.2006

@<TRIPOS>MOLECULE
ASD01810244
  42   45    0    0    0
SMALL
NO_CHARGES


@<TRIPOS>ATOM
   1 C1             0.0981     1.4759     0.3586 C.ar    
   2 C2             0.0801     0.0883     0.3508 C.ar    
   3 C3             1.2499    -0.6304     0.2198 C.ar    
   4 C4             2.4673     0.0387     0.0930 C.ar    
   5 C5             2.4807     1.4431     0.1009 C.ar    
   6 C6             1.2889     2.1562     0.2348 C.ar    
   7 N7             3.6441    -0.6674    -0.0382 N.pl3   
   8 C8             4.8371    -0.0726    -0.1624 C.2     
   9 C9             4.9771     1.3008    -0.1678 C.2     
  10 C10            3.7744     2.1384    -0.0339 C.2     
  11 O11            3.8445     3.3549    -0.0334 O.2     
  12 C12            6.3048     1.9161    -0.3050 C.2     
  13 O13            6.4284     3.2585    -0.3089 O.3     
  14 O14            7.2914     1.2145    -0.4149 O.2     
  15 C15            3.5869    -2.1313    -0.0413 C.3     
  16 C16            3.4437    -2.6254    -1.4578 C.ar    
  17 C17            4.5585    -2.7705    -2.2623 C.ar    
  18 N18            4.4465    -3.2020    -3.5022 N.ar    
  19 C19            3.2683    -3.5129    -4.0266 C.ar    
  20 C20            2.1031    -3.3901    -3.2725 C.ar    
  21 C21            2.1920    -2.9446    -1.9652 C.ar    
  22 C22            3.1907    -3.9948    -5.4274 C.ar    
  23 F23            1.2168    -1.9810     0.2147 F       
  24 C24            1.9556    -4.2271    -6.0287 C.ar    
  25 N25            1.8853    -4.6547    -7.2728 N.ar    
  26 C26            2.9667    -4.8786    -7.9940 C.ar    
  27 C27            4.2295    -4.6717    -7.4689 C.ar    
  28 C28            4.3555    -4.2176    -6.1675 C.ar    
  29 H29           -0.8266     2.0249     0.4578 H       
  30 H30           -0.8600    -0.4344     0.4486 H       
  31 H31            1.3003     3.2361     0.2404 H       
  32 H32            5.7193    -0.6877    -0.2613 H       
  33 H33            7.3218     3.6168    -0.4016 H       
  34 H34            4.5033    -2.5317     0.3923 H       
  35 H35            2.7314    -2.4627     0.5473 H       
  36 H36            5.5344    -2.5265    -1.8693 H       
  37 H37            1.1445    -3.6429    -3.7009 H       
  38 H38            1.3062    -2.8394    -1.3563 H       
  39 H39            1.0476    -4.0555    -5.4697 H       
  40 H40            2.8645    -5.2292    -9.0104 H       
  41 H41            5.1076    -4.8585    -8.0693 H       
  42 H42            5.3291    -4.0476    -5.7322 H       
@<TRIPOS>BOND
   1    1    2 ar
   2    1    6 ar
   3    1   29 1
   4    2    3 ar
   5    2   30 1
   6    3    4 ar
   7    3   23 1
   8    4    5 ar
   9    4    7 1
  10    5    6 ar
  11    5   10 1
  12    6   31 1
  13    7    8 1
  14    7   15 1
  15    8    9 2
  16    8   32 1
  17    9   10 1
  18    9   12 1
  19   10   11 2
  20   12   13 1
  21   12   14 2
  22   13   33 1
  23   15   16 1
  24   15   34 1
  25   15   35 1
  26   16   17 ar
  27   16   21 ar
  28   17   18 ar
  29   17   36 1
  30   18   19 ar
  31   19   20 ar
  32   19   22 1
  33   20   21 ar
  34   20   37 1
  35   21   38 1
  36   22   24 ar
  37   22   28 ar
  38   24   25 ar
  39   24   39 1
  40   25   26 ar
  41   26   27 ar
  42   26   40 1
  43   27   28 ar
  44   27   41 1
  45   28   42 1

#	End of record

