#	Name: ASD01900062
#	Creating user name:	WinNT
#	Creation time:	15. 06. 2019 19:51

#	Modifying user name:	WinNT
#	Modification time:	15. 06. 2019 19:51

#	Program:	/corina/corina34_cracker 3.40 0067  02.08.2006

@<TRIPOS>MOLECULE
ASD01900062
  35   36    0    0    0
SMALL
NO_CHARGES


@<TRIPOS>ATOM
   1 C1            -0.1723     1.3763     0.5924 C.ar    
   2 C2            -0.1535    -0.0059     0.5930 C.ar    
   3 C3            -1.1923    -0.7134     0.0026 C.ar    
   4 C4            -2.2475    -0.0301    -0.5870 C.ar    
   5 C5            -2.2616     1.3522    -0.5848 C.ar    
   6 C6            -1.2280     2.0549     0.0092 C.ar    
   7 Cl7            1.1259     2.2617     1.3303 Cl      
   8 Cl8           -3.5805     2.2072    -1.3217 Cl      
   9 N9            -1.1754    -2.1126     0.0015 N.am    
  10 C10           -2.3293    -2.8005     0.1105 C.2     
  11 O11           -3.3708    -2.2106     0.3066 O.2     
  12 C12           -2.3254    -4.3025    -0.0112 C.3     
  13 C13           -1.4342    -4.9003     1.0794 C.3     
  14 C14           -3.7522    -4.8309     0.1497 C.3     
  15 C15           -4.2918    -4.4321     1.5247 C.3     
  16 C16           -3.4006    -5.0298     2.6153 C.3     
  17 C17           -1.9738    -4.5014     2.4544 C.3     
  18 C18           -4.6300    -4.2422    -0.9245 C.2     
  19 O19           -4.1624    -3.4783    -1.7355 O.2     
  20 O20           -5.9314    -4.5664    -0.9803 O.3     
  21 H21            0.6686    -0.5350     1.0519 H       
  22 H22           -3.0565    -0.5781    -1.0471 H       
  23 H23           -1.2410     3.1348     0.0101 H       
  24 H24           -0.3333    -2.5874    -0.0778 H       
  25 H25           -1.9410    -4.5867    -0.9908 H       
  26 H26           -1.4314    -5.9867     0.9914 H       
  27 H27           -0.4177    -4.5238     0.9648 H       
  28 H28           -3.7494    -5.9174     0.0616 H       
  29 H29           -4.2946    -3.3456     1.6127 H       
  30 H30           -5.3083    -4.8085     1.6393 H       
  31 H31           -3.7850    -4.7456     3.5949 H       
  32 H32           -3.3978    -6.1162     2.5273 H       
  33 H33           -1.3389    -4.9272     3.2314 H       
  34 H34           -1.9766    -3.4150     2.5425 H       
  35 H35           -6.4542    -4.1636    -1.6871 H       
@<TRIPOS>BOND
   1    1    2 ar
   2    1    7 1
   3    1    6 ar
   4    2    3 ar
   5    2   21 1
   6    3    4 ar
   7    3    9 1
   8    4    5 ar
   9    4   22 1
  10    5    6 ar
  11    5    8 1
  12    6   23 1
  13    9   10 am
  14    9   24 1
  15   10   11 2
  16   10   12 1
  17   12   13 1
  18   12   14 1
  19   12   25 1
  20   13   17 1
  21   13   26 1
  22   13   27 1
  23   14   18 1
  24   14   15 1
  25   14   28 1
  26   15   16 1
  27   15   29 1
  28   15   30 1
  29   16   17 1
  30   16   31 1
  31   16   32 1
  32   17   33 1
  33   17   34 1
  34   18   19 2
  35   18   20 1
  36   20   35 1

#	End of record

