#	Name: ASD01208438
#	Creating user name:	WinNT
#	Creation time:	15. 06. 2019 19:09

#	Modifying user name:	WinNT
#	Modification time:	15. 06. 2019 19:09

#	Program:	/corina/corina34_cracker 3.40 0067  02.08.2006

@<TRIPOS>MOLECULE
ASD01208438
  39   40    0    0    0
SMALL
NO_CHARGES


@<TRIPOS>ATOM
   1 N1             0.0394     1.4488     0.0215 N.am    
   2 C2            -0.0505     0.0721     0.0138 C.2     
   3 C3             1.2181    -0.4272    -0.0168 C.2     
   4 C4             2.1014     0.6657    -0.0281 C.2     
   5 C5             1.3640     1.7953    -0.0044 C.2     
   6 C6            -0.9998     2.3067     0.0446 C.2     
   7 O7            -1.8392     2.2201     0.9178 O.2     
   8 O8            -1.1071     3.2591    -0.8998 O.3     
   9 S9            -2.9189    -0.0578     0.1930 S.3     
  10 C10           -1.2924    -0.7161     0.0348 C.2     
  11 N11           -1.3668    -2.0154    -0.0614 N.2     
  12 C12           -2.5669    -2.5477    -0.0240 C.2     
  13 C13           -3.5823    -1.6885     0.1097 C.2     
  14 C14           -2.7857    -4.0353    -0.1249 C.3     
  15 C15           -2.1195    -4.5636    -1.3969 C.3     
  16 O16           -2.4247    -5.9508    -1.5536 O.3     
  17 O17           -2.2135    -4.6793     1.0152 O.3     
  18 C18           -2.2520     4.1479    -0.8125 C.3     
  19 C19           -2.2173     4.8948     0.5224 C.3     
  20 C20           -2.2037     5.1561    -1.9624 C.3     
  21 C21           -3.5413     3.3295    -0.9056 C.3     
  22 H22            1.4935    -1.4714    -0.0300 H       
  23 H23            3.1797     0.6111    -0.0512 H       
  24 H24            1.7528     2.8029    -0.0060 H       
  25 H25           -4.6292    -1.9489     0.1586 H       
  26 H26           -3.8550    -4.2436    -0.1614 H       
  27 H27           -2.4919    -4.0100    -2.2589 H       
  28 H28           -1.0397    -4.4354    -1.3216 H       
  29 H29           -2.0340    -6.3530    -2.3414 H       
  30 H30           -1.2619    -4.5368     1.1112 H       
  31 H31           -1.2987     5.4778     0.5887 H       
  32 H32           -3.0767     5.5620     0.5879 H       
  33 H33           -2.2516     4.1765     1.3415 H       
  34 H34           -2.2285     4.6241    -2.9134 H       
  35 H35           -3.0632     5.8234    -1.8968 H       
  36 H36           -1.2852     5.7392    -1.8960 H       
  37 H37           -3.5757     2.6112    -0.0865 H       
  38 H38           -4.4007     3.9967    -0.8401 H       
  39 H39           -3.5661     2.7975    -1.8566 H       
@<TRIPOS>BOND
   1    1    2 1
   2    1    5 1
   3    1    6 am
   4    2    3 2
   5    2   10 1
   6    3    4 1
   7    3   22 1
   8    4    5 2
   9    4   23 1
  10    5   24 1
  11    6    7 2
  12    6    8 1
  13    8   18 1
  14    9   10 1
  15    9   13 1
  16   10   11 2
  17   11   12 1
  18   12   13 2
  19   12   14 1
  20   13   25 1
  21   14   15 1
  22   14   17 1
  23   14   26 1
  24   15   16 1
  25   15   27 1
  26   15   28 1
  27   16   29 1
  28   17   30 1
  29   18   19 1
  30   18   21 1
  31   18   20 1
  32   19   31 1
  33   19   32 1
  34   19   33 1
  35   20   34 1
  36   20   35 1
  37   20   36 1
  38   21   37 1
  39   21   38 1
  40   21   39 1

#	End of record

