#	Name: ASD00170768
#	Creating user name:	WinNT
#	Creation time:	15. 06. 2019 18:32

#	Modifying user name:	WinNT
#	Modification time:	15. 06. 2019 18:32

#	Program:	/corina/corina34_cracker 3.40 0067  02.08.2006

@<TRIPOS>MOLECULE
ASD00170768
  62   66    0    0    0
SMALL
NO_CHARGES


@<TRIPOS>ATOM
   1 Cl1            5.1477     8.3636    -4.1363 Cl      
   2 C2             3.9994     8.0102    -2.8832 C.ar    
   3 C3             4.4128     7.3603    -1.7320 C.ar    
   4 C4             3.5054     7.0768    -0.7332 C.ar    
   5 C5             2.1673     7.4464    -0.8841 C.ar    
   6 C6             1.7566     8.1013    -2.0468 C.ar    
   7 C7             2.6745     8.3844    -3.0362 C.ar    
   8 C8             1.1893     7.1451     0.1828 C.2     
   9 O9             1.5303     6.4980     1.1561 O.2     
  10 C10           -0.1905     7.6251     0.0689 C.2     
  11 C11           -1.2303     6.8482    -0.3819 C.2     
  12 S12           -2.6893     7.7287    -0.3829 S.3     
  13 C13           -1.9098     9.1753     0.2319 C.2     
  14 C14           -0.6023     8.9630     0.4242 C.2     
  15 C15            0.3435    10.0138     0.9462 C.3     
  16 C16            0.4160     9.9220     2.4717 C.3     
  17 C17            0.8837     8.5227     2.8768 C.3     
  18 C18            1.4058    10.9630     2.9987 C.3     
  19 C19           -0.9687    10.1887     3.0652 C.3     
  20 C20           -2.6042    10.4534     0.5066 C.2     
  21 C21           -2.3549    11.7324    -0.0689 C.2     
  22 C22           -1.3109    12.0710    -1.1017 C.3     
  23 N23           -3.2081    12.5490     0.4744 N.2     
  24 O24           -3.9243    11.9912     1.2719 O.3     
  25 C25           -3.6407    10.6841     1.3686 C.2     
  26 C26           -4.3213     9.6739     2.2561 C.3     
  27 N27           -1.1087     5.5254    -0.7829 N.am    
  28 C28           -1.1576     4.4700     0.0499 C.2     
  29 O29           -1.3133     4.5232     1.2531 O.2     
  30 C30           -0.9908     3.2351    -0.7445 C.ar    
  31 C31           -0.8437     3.6542    -2.0827 C.ar    
  32 C32           -0.9320     5.1292    -2.0563 C.2     
  33 O33           -0.8507     5.8616    -3.0216 O.2     
  34 C34           -0.6665     2.7129    -3.0840 C.ar    
  35 C35           -0.6350     1.3650    -2.7623 C.ar    
  36 C36           -0.7797     0.9540    -1.4504 C.ar    
  37 C37           -0.9568     1.8841    -0.4380 C.ar    
  38 H38            5.4480     7.0746    -1.6166 H       
  39 H39            3.8288     6.5697     0.1638 H       
  40 H40            0.7230     8.3896    -2.1691 H       
  41 H41            2.3581     8.8912    -3.9358 H       
  42 H42            1.3355     9.8513     0.5248 H       
  43 H43           -0.0163    11.0016     0.6583 H       
  44 H44            1.8702     8.3327     2.4541 H       
  45 H45            0.9354     8.4574     3.9636 H       
  46 H46            0.1785     7.7811     2.5014 H       
  47 H47            1.0313    11.9632     2.7811 H       
  48 H48            1.5190    10.8438     4.0763 H       
  49 H49            2.3722    10.8235     2.5142 H       
  50 H50           -1.6500     9.3903     2.7709 H       
  51 H51           -0.8976    10.2234     4.1523 H       
  52 H52           -1.3451    11.1424     2.6951 H       
  53 H53           -1.7473    11.9954    -2.0977 H       
  54 H54           -0.9539    13.0877    -0.9376 H       
  55 H55           -0.4766    11.3748    -1.0168 H       
  56 H56           -5.1266    10.1590     2.8076 H       
  57 H57           -4.7323     8.8711     1.6440 H       
  58 H58           -3.5972     9.2610     2.9584 H       
  59 H59           -0.5537     3.0282    -4.1108 H       
  60 H60           -0.4969     0.6307    -3.5421 H       
  61 H61           -0.7541    -0.0991    -1.2125 H       
  62 H62           -1.0698     1.5572     0.5851 H       
@<TRIPOS>BOND
   1    1    2 1
   2    2    3 ar
   3    2    7 ar
   4    3    4 ar
   5    3   38 1
   6    4    5 ar
   7    4   39 1
   8    5    6 ar
   9    5    8 1
  10    6    7 ar
  11    6   40 1
  12    7   41 1
  13    8    9 2
  14    8   10 1
  15   10   11 2
  16   10   14 1
  17   11   12 1
  18   11   27 1
  19   12   13 1
  20   13   14 2
  21   13   20 1
  22   14   15 1
  23   15   16 1
  24   15   42 1
  25   15   43 1
  26   16   17 1
  27   16   18 1
  28   16   19 1
  29   17   44 1
  30   17   45 1
  31   17   46 1
  32   18   47 1
  33   18   48 1
  34   18   49 1
  35   19   50 1
  36   19   51 1
  37   19   52 1
  38   20   21 1
  39   20   25 2
  40   21   22 1
  41   21   23 2
  42   22   53 1
  43   22   54 1
  44   22   55 1
  45   23   24 1
  46   24   25 1
  47   25   26 1
  48   26   56 1
  49   26   57 1
  50   26   58 1
  51   27   28 am
  52   27   32 am
  53   28   29 2
  54   28   30 1
  55   30   31 ar
  56   30   37 ar
  57   31   32 1
  58   31   34 ar
  59   32   33 2
  60   34   35 ar
  61   34   59 1
  62   35   36 ar
  63   35   60 1
  64   36   37 ar
  65   36   61 1
  66   37   62 1

#	End of record

