#	Name: ASD01914560
#	Creating user name:	WinNT
#	Creation time:	15. 06. 2019 20:03

#	Modifying user name:	WinNT
#	Modification time:	15. 06. 2019 20:03

#	Program:	/corina/corina34_cracker 3.40 0067  02.08.2006

@<TRIPOS>MOLECULE
ASD01914560
  70   75    0    0    0
SMALL
NO_CHARGES


@<TRIPOS>ATOM
   1 C1            -0.0168     1.3872     0.0097 C.ar    
   2 C2             0.0021    -0.0041     0.0020 C.ar    
   3 C3             1.2223    -0.6652    -0.0132 C.ar    
   4 C4             2.3825     0.0874    -0.0202 C.ar    
   5 C5             2.2931     1.4791    -0.0118 C.ar    
   6 N6             1.1168     2.0797     0.0026 N.ar    
   7 C7            -1.3137     2.1032     0.0197 C.2     
   8 O8            -2.3543     1.4755     0.0212 O.2     
   9 N9            -1.3395     3.4507     0.0271 N.am    
  10 C10           -2.6221     4.1587     0.0370 C.3     
  11 C11           -2.3713     5.6680     0.0440 C.3     
  12 C12           -3.7107     6.4074     0.0544 C.3     
  13 C13           -4.4999     6.0157     1.3052 C.3     
  14 C14           -4.7506     4.5064     1.2982 C.3     
  15 C15           -5.5516     4.1283     0.0506 C.3     
  16 C16           -4.7624     4.5200    -1.2002 C.3     
  17 C17           -3.4230     3.7806    -1.2106 C.3     
  18 C18           -4.5117     6.0293    -1.1932 C.3     
  19 C19           -3.4112     3.7670     1.2879 C.3     
  20 N20           -3.4707     7.8526     0.0611 N.am    
  21 C21           -4.5117     8.7086     0.0706 C.2     
  22 C22           -4.2694    10.1672     0.0774 C.ar    
  23 C23           -5.3453    11.0561     0.0873 C.ar    
  24 C24           -5.1116    12.4179     0.0941 C.ar    
  25 C25           -3.8122    12.9000     0.0911 C.ar    
  26 C26           -2.7432    12.0226     0.0813 C.ar    
  27 C27           -2.9639    10.6605     0.0798 C.ar    
  28 O28           -5.6497     8.2816     0.0737 O.2     
  29 F29           -6.1512    13.2806     0.1032 F       
  30 N30            3.4545     2.2425    -0.0188 N.3     
  31 C31            3.1411     3.6782    -0.0081 C.3     
  32 C32            4.4421     4.4811     0.0641 C.3     
  33 N33            5.2905     4.1387    -1.0860 N.3     
  34 C34            5.6038     2.7030    -1.0967 C.3     
  35 C35            4.3028     1.9001    -1.1689 C.3     
  36 C36            6.5180     4.9456    -1.0933 C.3     
  37 H37           -0.9220    -0.5630     0.0082 H       
  38 H38            1.2649    -1.7443    -0.0190 H       
  39 H39            3.3475    -0.3974    -0.0316 H       
  40 H40           -0.5090     3.9517     0.0259 H       
  41 H41           -1.8007     5.9374     0.9328 H       
  42 H42           -1.8091     5.9471    -0.8471 H       
  43 H43           -3.9293     6.2851     2.1940 H       
  44 H44           -5.4541     6.5425     1.3126 H       
  45 H45           -5.3129     4.2273     2.1893 H       
  46 H46           -5.7302     3.0530     0.0456 H       
  47 H47           -6.5058     4.6551     0.0580 H       
  48 H48           -5.3330     4.2506    -2.0890 H       
  49 H49           -2.8608     4.0596    -2.1017 H       
  50 H50           -3.6016     2.7053    -1.2156 H       
  51 H51           -5.4659     6.5561    -1.1858 H       
  52 H52           -3.9495     6.3084    -2.0843 H       
  53 H53           -3.5899     2.6917     1.2829 H       
  54 H54           -2.8406     4.0364     2.1766 H       
  55 H55           -2.5625     8.1934     0.0587 H       
  56 H56           -6.3579    10.6805     0.0893 H       
  57 H57           -3.6338    13.9651     0.0961 H       
  58 H58           -1.7330    12.4045     0.0786 H       
  59 H59           -2.1276     9.9771     0.0763 H       
  60 H60            2.6025     3.9396    -0.9190 H       
  61 H61            2.5227     3.9090     0.8593 H       
  62 H62            4.2135     5.5466     0.0429 H       
  63 H63            4.9675     4.2398     0.9882 H       
  64 H64            6.2222     2.4722    -1.9641 H       
  65 H65            6.1424     2.4415    -0.1858 H       
  66 H66            4.5315     0.8346    -1.1477 H       
  67 H67            3.7775     2.1413    -2.0929 H       
  68 H68            7.0796     4.7610    -0.1775 H       
  69 H69            7.1274     4.6720    -1.9546 H       
  70 H70            6.2578     6.0024    -1.1533 H       
@<TRIPOS>BOND
   1    1    2 ar
   2    1    6 ar
   3    1    7 1
   4    2    3 ar
   5    2   37 1
   6    3    4 ar
   7    3   38 1
   8    4    5 ar
   9    4   39 1
  10    5    6 ar
  11    5   30 1
  12    7    8 2
  13    7    9 am
  14    9   10 1
  15    9   40 1
  16   10   11 1
  17   10   17 1
  18   10   19 1
  19   11   12 1
  20   11   41 1
  21   11   42 1
  22   12   13 1
  23   12   18 1
  24   12   20 1
  25   13   14 1
  26   13   43 1
  27   13   44 1
  28   14   15 1
  29   14   19 1
  30   14   45 1
  31   15   16 1
  32   15   46 1
  33   15   47 1
  34   16   17 1
  35   16   18 1
  36   16   48 1
  37   17   49 1
  38   17   50 1
  39   18   51 1
  40   18   52 1
  41   19   53 1
  42   19   54 1
  43   20   21 am
  44   20   55 1
  45   21   22 1
  46   21   28 2
  47   22   23 ar
  48   22   27 ar
  49   23   24 ar
  50   23   56 1
  51   24   25 ar
  52   24   29 1
  53   25   26 ar
  54   25   57 1
  55   26   27 ar
  56   26   58 1
  57   27   59 1
  58   30   31 1
  59   30   35 1
  60   31   32 1
  61   31   60 1
  62   31   61 1
  63   32   33 1
  64   32   62 1
  65   32   63 1
  66   33   34 1
  67   33   36 1
  68   34   35 1
  69   34   64 1
  70   34   65 1
  71   35   66 1
  72   35   67 1
  73   36   68 1
  74   36   69 1
  75   36   70 1

#	End of record

