#	Name: ASD01310044
#	Creating user name:	WinNT
#	Creation time:	15. 06. 2019 19:15

#	Modifying user name:	WinNT
#	Modification time:	15. 06. 2019 19:15

#	Program:	/corina/corina34_cracker 3.40 0067  02.08.2006

@<TRIPOS>MOLECULE
ASD01310044
  45   49    0    0    0
SMALL
NO_CHARGES


@<TRIPOS>ATOM
   1 C1            -0.0182     1.4931     0.0103 C.3     
   2 C2             0.0021    -0.0041     0.0020 C.ar    
   3 C3             0.0456    -0.7189    -1.1858 C.ar    
   4 C4            -0.1965     1.2676    -2.4792 C.2     
   5 C5            -0.0204    -0.6883     1.2066 C.ar    
   6 C6             0.0110    -2.0709     1.2262 C.ar    
   7 C7             0.0658    -2.7820     0.0395 C.ar    
   8 C8             0.0826    -2.1072    -1.1651 C.ar    
   9 N9             1.2877     3.4099    -0.5718 N.am    
  10 C10            1.4190     2.0562    -0.0004 C.3     
  11 C11           -0.6139     2.0753    -1.2841 C.3     
  12 C12            0.0615     3.4634    -1.3814 C.3     
  13 N13            0.0489    -0.0461    -2.4109 N.am    
  14 O14           -0.0771     1.8278    -3.5483 O.2     
  15 S15            2.3464     4.6620    -0.3401 S.o2    
  16 O16            1.6109     5.8566    -0.5668 O.2     
  17 O17            3.0306     4.3893     0.8751 O.2     
  18 C18            3.5522     4.5693    -1.6216 C.ar    
  19 C19            4.7021     3.8251    -1.4341 C.ar    
  20 C20            3.3437     5.2364    -2.8143 C.ar    
  21 C21            5.4513     4.4197    -3.6324 C.ar    
  22 C22            5.6510     3.7493    -2.4365 C.ar    
  23 C23            4.2902     5.1645    -3.8235 C.ar    
  24 O24            4.3267     5.7171    -5.0712 O.3     
  25 C25            5.7031     5.6383    -5.4864 C.3     
  26 O26            6.2149     4.5049    -4.7607 O.3     
  27 H27           -0.5601     1.8576     0.8830 H       
  28 H28           -1.6993     2.1523    -1.2203 H       
  29 C29            0.3257    -0.7919    -3.6411 C.3     
  30 F30           -0.0113    -2.7289     2.4059 F       
  31 H31           -0.0623    -0.1389     2.1355 H       
  32 H32            0.0949    -3.8615     0.0560 H       
  33 H33            0.1246    -2.6596    -2.0922 H       
  34 H34            1.8136     2.1090     1.0142 H       
  35 H35            2.0634     1.4402    -0.6277 H       
  36 H36           -0.6079     4.2296    -0.9902 H       
  37 H37            0.3119     3.6819    -2.4195 H       
  38 H38            4.8596     3.3022    -0.5024 H       
  39 H39            2.4424     5.8134    -2.9596 H       
  40 H40            6.5485     3.1674    -2.2873 H       
  41 H41            5.7699     5.4671    -6.5608 H       
  42 H42            6.2396     6.5454    -5.2080 H       
  43 H43           -0.6091    -1.1699    -4.0550 H       
  44 H44            0.8036    -0.1327    -4.3658 H       
  45 H45            0.9886    -1.6279    -3.4179 H       
@<TRIPOS>BOND
   1    1    2 1
   2    1   10 1
   3    1   11 1
   4    1   27 1
   5    2    3 ar
   6    2    5 ar
   7    3   13 1
   8    3    8 ar
   9    4   11 1
  10    4   14 2
  11    4   13 am
  12    5    6 ar
  13    5   31 1
  14    6    7 ar
  15    6   30 1
  16    7    8 ar
  17    7   32 1
  18    8   33 1
  19    9   10 1
  20    9   12 1
  21    9   15 am
  22   10   34 1
  23   10   35 1
  24   11   12 1
  25   11   28 1
  26   12   36 1
  27   12   37 1
  28   13   29 1
  29   15   16 2
  30   15   17 2
  31   15   18 1
  32   18   20 ar
  33   18   19 ar
  34   19   22 ar
  35   19   38 1
  36   20   23 ar
  37   20   39 1
  38   21   22 ar
  39   21   26 1
  40   21   23 ar
  41   22   40 1
  42   23   24 1
  43   24   25 1
  44   25   26 1
  45   25   41 1
  46   25   42 1
  47   29   43 1
  48   29   44 1
  49   29   45 1

#	End of record

