#	Name: ASD01882780
#	Creating user name:	WinNT
#	Creation time:	15. 06. 2019 19:45

#	Modifying user name:	WinNT
#	Modification time:	15. 06. 2019 19:45

#	Program:	/corina/corina34_cracker 3.40 0067  02.08.2006

@<TRIPOS>MOLECULE
ASD01882780
  54   58    0    0    0
SMALL
NO_CHARGES


@<TRIPOS>ATOM
   1 F1            -1.0759     3.2469    -1.3988 F       
   2 S2            -0.2100     2.1369    -2.1800 S.o2    
   3 C3             2.3122     2.3321    -1.1570 C.ar    
   4 C4             1.4626     2.6910    -2.1884 C.ar    
   5 C5             1.9207     3.4827    -3.2265 C.ar    
   6 C6             3.2291     3.9195    -3.2394 C.ar    
   7 C7             4.0914     3.5614    -2.2017 C.ar    
   8 C8             3.6227     2.7628    -1.1572 C.ar    
   9 O9            -0.2406     0.9654    -1.3764 O.2     
  10 O10           -0.6485     2.1641    -3.5314 O.2     
  11 C11            5.4948     4.0255    -2.2092 C.2     
  12 O12            5.9003     4.7205    -3.1204 O.2     
  13 N13            6.3248     3.6780    -1.2058 N.am    
  14 C14           10.3671     4.7061    -1.3730 C.ar    
  15 C15            9.7048     4.6918    -0.1622 C.ar    
  16 C16            8.3662     4.3517    -0.1056 C.ar    
  17 C17            7.6791     4.0220    -1.2677 C.ar    
  18 C18            8.3367     4.0337    -2.4886 C.ar    
  19 C19            9.6858     4.3765    -2.5449 C.ar    
  20 N20           11.7106     4.3709    -6.2713 N.pl3   
  21 C21           11.5530     5.5578    -5.5971 C.2     
  22 C22           10.8841     5.5761    -4.3612 C.2     
  23 C23           10.3953     4.3907    -3.8461 C.2     
  24 C24           10.5792     3.1896    -4.5732 C.2     
  25 C25           11.2204     3.2052    -5.7568 C.2     
  26 C26           12.3852     4.6789    -7.4129 C.2     
  27 N27           12.6070     5.9681    -7.4041 N.2     
  28 N28           12.1204     6.4978    -6.3372 N.2     
  29 C29           12.8013     3.7109    -8.4903 C.3     
  30 C30           11.6895     3.6026    -9.5358 C.3     
  31 C31           11.9682     2.7542   -10.7782 C.3     
  32 C32           11.0068     2.2436    -9.7030 C.3     
  33 C33           10.7031     6.8692    -3.6088 C.3     
  34 F34           11.8432     7.1244    -2.8391 F       
  35 F35           10.5107     7.9149    -4.5181 F       
  36 F36            9.5875     6.7689    -2.7706 F       
  37 H37            1.9472     1.7173    -0.3475 H       
  38 H38            1.2525     3.7590    -4.0288 H       
  39 H39            3.5857     4.5369    -4.0507 H       
  40 H40            4.2846     2.4826    -0.3512 H       
  41 H41            5.9830     3.1893    -0.4408 H       
  42 H42           11.4119     4.9763    -1.4138 H       
  43 H43           10.2341     4.9472     0.7439 H       
  44 H44            7.8529     4.3418     0.8446 H       
  45 H45            7.8047     3.7774    -3.3928 H       
  46 H46           10.2007     2.2583    -4.1785 H       
  47 H47           11.3550     2.2831    -6.3027 H       
  48 H48           13.7144     4.0678    -8.9666 H       
  49 H49           12.9812     2.7308    -8.0484 H       
  50 H50           11.0750     4.4939    -9.6626 H       
  51 H51           11.5367     3.0870   -11.7221 H       
  52 H52           12.9436     2.2731   -10.8506 H       
  53 H53           11.3498     1.4266    -9.0681 H       
  54 H54            9.9428     2.2406    -9.9396 H       
@<TRIPOS>BOND
   1    1    2 1
   2    2    4 1
   3    2    9 2
   4    2   10 2
   5    3    4 ar
   6    3    8 ar
   7    3   37 1
   8    4    5 ar
   9    5    6 ar
  10    5   38 1
  11    6    7 ar
  12    6   39 1
  13    7    8 ar
  14    7   11 1
  15    8   40 1
  16   11   12 2
  17   11   13 am
  18   13   17 1
  19   13   41 1
  20   14   15 ar
  21   14   19 ar
  22   14   42 1
  23   15   16 ar
  24   15   43 1
  25   16   17 ar
  26   16   44 1
  27   17   18 ar
  28   18   19 ar
  29   18   45 1
  30   19   23 1
  31   20   26 1
  32   20   21 1
  33   20   25 1
  34   21   22 1
  35   21   28 2
  36   22   33 1
  37   22   23 2
  38   23   24 1
  39   24   25 2
  40   24   46 1
  41   25   47 1
  42   26   27 2
  43   26   29 1
  44   27   28 1
  45   29   30 1
  46   29   48 1
  47   29   49 1
  48   30   31 1
  49   30   32 1
  50   30   50 1
  51   31   32 1
  52   31   51 1
  53   31   52 1
  54   32   53 1
  55   32   54 1
  56   33   34 1
  57   33   35 1
  58   33   36 1

#	End of record

