#	Name: ASD03330150
#	Creating user name:	WinNT
#	Creation time:	15. 06. 2019 20:36

#	Modifying user name:	WinNT
#	Modification time:	15. 06. 2019 20:36

#	Program:	/corina/corina34_cracker 3.40 0067  02.08.2006

@<TRIPOS>MOLECULE
ASD03330150
  52   55    0    0    0
SMALL
NO_CHARGES


@<TRIPOS>ATOM
   1 C1            -4.2840    -6.0880     3.0128 C.ar    
   2 C2            -5.1652    -5.0994     3.4141 C.ar    
   3 C3            -5.2894    -3.9408     2.6727 C.ar    
   4 C4            -4.5287    -3.7683     1.5239 C.ar    
   5 C5            -3.6449    -4.7616     1.1235 C.ar    
   6 C6            -3.5209    -5.9162     1.8712 C.ar    
   7 Cl7           -4.1302    -7.5431     3.9470 Cl      
   8 N8            -4.6530    -2.5951     0.7703 N.am    
   9 C9            -5.8429    -1.9668     0.6928 C.2     
  10 N10           -5.9393    -0.7822     0.0574 N.am    
  11 O11           -6.8294    -2.4688     1.1961 O.2     
  12 C12           -7.1914    -0.1819    -0.1176 C.ar    
  13 C13           -8.3175    -0.9686    -0.3050 C.ar    
  14 C14           -9.5613    -0.3667    -0.4788 C.ar    
  15 C15           -9.6671     1.0230    -0.4634 C.ar    
  16 C16           -8.5407     1.7994    -0.2766 C.ar    
  17 C17           -7.3071     1.2028    -0.0980 C.ar    
  18 C18          -10.7704    -1.2024    -0.6803 C.ar    
  19 N19          -10.6602    -2.5255    -0.6940 N.ar    
  20 C20          -12.0096    -0.5923    -0.8473 C.ar    
  21 C21          -13.1336    -1.3823    -1.0345 C.ar    
  22 C22          -12.9816    -2.7579    -1.0485 C.ar    
  23 C23          -11.7141    -3.3052    -0.8703 C.ar    
  24 N24          -11.5533    -4.6857    -0.8836 N.pl3   
  25 C25          -12.7141    -5.5565    -1.0845 C.3     
  26 C26          -12.2653    -6.9063    -1.6713 C.3     
  27 C27          -13.3834    -5.8658     0.2706 C.3     
  28 C28          -13.8389    -7.3405     0.1414 C.3     
  29 C29          -12.6775    -7.9887    -0.6523 C.3     
  30 H30           -5.7565    -5.2341     4.3078 H       
  31 H31           -5.9778    -3.1698     2.9860 H       
  32 H32           -3.0524    -4.6300     0.2302 H       
  33 H33           -2.8334    -6.6890     1.5605 H       
  34 H34           -3.8828    -2.2343     0.3039 H       
  35 H35           -5.1410    -0.3456    -0.2786 H       
  36 H36           -8.2303    -2.0450    -0.3165 H       
  37 H37          -10.6303     1.4926    -0.5978 H       
  38 H38           -8.6247     2.8761    -0.2657 H       
  39 H39           -6.4291     1.8146     0.0477 H       
  40 H40          -12.0951     0.4842    -0.8310 H       
  41 H41          -14.1072    -0.9337    -1.1662 H       
  42 H42          -13.8380    -3.4001    -1.1922 H       
  43 H43          -10.6724    -5.0726    -0.7599 H       
  44 H44          -13.4286    -5.0774    -1.7539 H       
  45 H45          -12.7626    -7.0826    -2.6251 H       
  46 H46          -11.1838    -6.9135    -1.8066 H       
  47 H47          -12.6658    -5.7580     1.0839 H       
  48 H48          -14.2423    -5.2138     0.4295 H       
  49 H49          -13.9396    -7.8012     1.1242 H       
  50 H50          -14.7732    -7.4089    -0.4159 H       
  51 H51          -13.0213    -8.8860    -1.1670 H       
  52 H52          -11.8459    -8.2238     0.0120 H       
@<TRIPOS>BOND
   1    1    2 ar
   2    1    7 1
   3    1    6 ar
   4    2    3 ar
   5    2   30 1
   6    3    4 ar
   7    3   31 1
   8    4    5 ar
   9    4    8 1
  10    5    6 ar
  11    5   32 1
  12    6   33 1
  13    8    9 am
  14    8   34 1
  15    9   10 am
  16    9   11 2
  17   10   12 1
  18   10   35 1
  19   12   13 ar
  20   12   17 ar
  21   13   14 ar
  22   13   36 1
  23   14   15 ar
  24   14   18 1
  25   15   16 ar
  26   15   37 1
  27   16   17 ar
  28   16   38 1
  29   17   39 1
  30   18   19 ar
  31   18   20 ar
  32   19   23 ar
  33   20   21 ar
  34   20   40 1
  35   21   22 ar
  36   21   41 1
  37   22   23 ar
  38   22   42 1
  39   23   24 1
  40   24   25 1
  41   24   43 1
  42   25   26 1
  43   25   27 1
  44   25   44 1
  45   26   29 1
  46   26   45 1
  47   26   46 1
  48   27   28 1
  49   27   47 1
  50   27   48 1
  51   28   29 1
  52   28   49 1
  53   28   50 1
  54   29   51 1
  55   29   52 1

#	End of record

