#	Name: ASD08170817
#	Creating user name:	WinNT
#	Creation time:	15. 06. 2019 21:18

#	Modifying user name:	WinNT
#	Modification time:	15. 06. 2019 21:18

#	Program:	/corina/corina34_cracker 3.40 0067  02.08.2006

@<TRIPOS>MOLECULE
ASD08170817
  93   96    0    0    0
SMALL
NO_CHARGES


@<TRIPOS>ATOM
   1 C1            -0.5607     1.2544     0.0775 C.2     
   2 N2            -0.7430    -0.0794     0.1423 N.am    
   3 C3             0.3492    -0.9230     0.3144 C.2     
   4 S4             0.2848    -2.6318     0.4157 S.3     
   5 C5             2.0380    -2.6666     0.6077 C.2     
   6 C6             2.8893    -3.8984     0.7775 C.3     
   7 C7             4.9283    -7.1628     4.6127 C.3     
   8 C8             4.9621    -7.3481     6.1079 C.2     
   9 S9             6.1509    -6.6603     7.2149 S.3     
  10 C10            5.3423    -7.4165     8.5223 C.2     
  11 N11            1.5878    -0.5461     0.4193 N.2     
  12 N12            2.4621    -1.4432     0.5760 N.2     
  13 N13            4.1203    -8.0364     6.8117 N.2     
  14 N14            4.3232    -8.0739     8.0572 N.2     
  15 O15            0.5558     1.7190     0.1693 O.2     
  16 C16           -1.7435     2.1681    -0.1152 C.3     
  17 N17            5.7156    -7.3396     9.8598 N.am    
  18 C18            4.9937    -7.9827    10.7989 C.2     
  19 C19            5.3982    -7.8994    12.2482 C.3     
  20 O20            4.0187    -8.6284    10.4775 O.2     
  21 C21            3.0225    -4.2251     2.2662 C.3     
  22 C22            4.0880    -5.9309     4.2704 C.3     
  23 C23            4.4342    -8.6998    13.0855 C.ar    
  24 S24            4.0473    -5.7079     2.4706 S.3     
  25 C25            4.6801   -10.0361    13.3328 C.ar    
  26 C26           -1.2721     3.5989    -0.1534 C.ar    
  27 C27           -0.9212     4.1786    -1.3589 C.ar    
  28 C28           -0.4885     5.4914    -1.3982 C.ar    
  29 C29           -0.4051     6.2277    -0.2326 C.ar    
  30 C30           -0.7567     5.6485     0.9795 C.ar    
  31 C31           -1.1963     4.3317     1.0148 C.ar    
  32 N32           -0.6733     6.3919     2.1623 N.am    
  33 C33           -0.9670     7.7073     2.1536 C.2     
  34 O34           -1.2240     8.2655     1.1054 O.2     
  35 O35           -0.9756     8.4028     3.3065 O.3     
  36 C36           -1.3006     9.8154     3.2218 C.3     
  37 C37           -2.7020     9.9818     2.6308 C.3     
  38 C38           -1.2606    10.4328     4.6211 C.3     
  39 C39           -0.2816    10.5202     2.3241 C.3     
  40 C40            3.7916   -10.7729    14.1048 C.ar    
  41 C41            2.6581   -10.1630    14.6259 C.ar    
  42 C42            2.4178    -8.8262    14.3750 C.ar    
  43 C43            3.3072    -8.0940    13.6102 C.ar    
  44 N44            4.0377   -12.1273    14.3569 N.am    
  45 C45            3.7030   -12.6629    15.5475 C.2     
  46 O46            3.1122   -11.9924    16.3708 O.2     
  47 O47            4.0231   -13.9411    15.8246 O.3     
  48 C48            3.6312   -14.4515    17.1262 C.3     
  49 C49            2.1102   -14.3682    17.2698 C.3     
  50 C50            4.0769   -15.9092    17.2578 C.3     
  51 C51            4.2935   -13.6147    18.2227 C.3     
  52 H52           -1.6360    -0.4510     0.0688 H       
  53 H53            2.4216    -4.7372     0.2619 H       
  54 H54            3.8779    -3.7179     0.3552 H       
  55 H55            5.9435    -7.0250     4.2407 H       
  56 H56            4.4873    -8.0442     4.1473 H       
  57 H57           -2.2417     1.9245    -1.0537 H       
  58 H58           -2.4419     2.0376     0.7114 H       
  59 H59            6.4954    -6.8231    10.1168 H       
  60 H60            6.4042    -8.3012    12.3683 H       
  61 H61            5.3819    -6.8583    12.5707 H       
  62 H62            3.4902    -3.3863     2.7818 H       
  63 H63            2.0340    -4.4056     2.6885 H       
  64 H64            3.0728    -6.0687     4.6425 H       
  65 H65            4.5290    -5.0495     4.7358 H       
  66 H66            5.5624   -10.5077    12.9258 H       
  67 H67           -0.9849     3.6047    -2.2715 H       
  68 H68           -0.2152     5.9413    -2.3412 H       
  69 H69           -0.0665     7.2527    -0.2639 H       
  70 H70           -1.4708     3.8785     1.9559 H       
  71 H71           -0.4041     5.9605     2.9883 H       
  72 H72           -3.4280     9.4797     3.2703 H       
  73 H73           -2.9460    11.0422     2.5672 H       
  74 H74           -2.7305     9.5419     1.6339 H       
  75 H75           -0.2623    10.3142     5.0421 H       
  76 H76           -1.5046    11.4932     4.5575 H       
  77 H77           -1.9866     9.9307     5.2606 H       
  78 H78           -0.3101    10.0804     1.3272 H       
  79 H79           -0.5256    11.5806     2.2605 H       
  80 H80            0.7168    10.4017     2.7451 H       
  81 H81            1.9650   -10.7334    15.2264 H       
  82 H82            1.5362    -8.3514    14.7797 H       
  83 H83            3.1172    -7.0489    13.4154 H       
  84 H84            4.4492   -12.6806    13.6746 H       
  85 H85            1.6384   -14.9643    16.4887 H       
  86 H86            1.8160   -14.7514    18.2469 H       
  87 H87            1.7927   -13.3297    17.1761 H       
  88 H88            5.1605   -15.9685    17.1555 H       
  89 H89            3.7827   -16.2923    18.2349 H       
  90 H90            3.6050   -16.5053    16.4767 H       
  91 H91            3.9760   -12.5762    18.1289 H       
  92 H92            3.9993   -13.9979    19.1998 H       
  93 H93            5.3771   -13.6740    18.1204 H       
@<TRIPOS>BOND
   1    1    2 am
   2    1   15 2
   3    1   16 1
   4    2    3 1
   5    2   52 1
   6    3    4 1
   7    3   11 2
   8    4    5 1
   9    5    6 1
  10    5   12 2
  11    6   21 1
  12    6   53 1
  13    6   54 1
  14    7    8 1
  15    7   22 1
  16    7   55 1
  17    7   56 1
  18    8    9 1
  19    8   13 2
  20    9   10 1
  21   10   17 1
  22   10   14 2
  23   11   12 1
  24   13   14 1
  25   16   26 1
  26   16   57 1
  27   16   58 1
  28   17   18 am
  29   17   59 1
  30   18   19 1
  31   18   20 2
  32   19   23 1
  33   19   60 1
  34   19   61 1
  35   21   24 1
  36   21   62 1
  37   21   63 1
  38   22   24 1
  39   22   64 1
  40   22   65 1
  41   23   25 ar
  42   23   43 ar
  43   25   40 ar
  44   25   66 1
  45   26   27 ar
  46   26   31 ar
  47   27   28 ar
  48   27   67 1
  49   28   29 ar
  50   28   68 1
  51   29   30 ar
  52   29   69 1
  53   30   31 ar
  54   30   32 1
  55   31   70 1
  56   32   33 am
  57   32   71 1
  58   33   34 2
  59   33   35 1
  60   35   36 1
  61   36   37 1
  62   36   38 1
  63   36   39 1
  64   37   72 1
  65   37   73 1
  66   37   74 1
  67   38   75 1
  68   38   76 1
  69   38   77 1
  70   39   78 1
  71   39   79 1
  72   39   80 1
  73   40   41 ar
  74   40   44 1
  75   41   42 ar
  76   41   81 1
  77   42   43 ar
  78   42   82 1
  79   43   83 1
  80   44   45 am
  81   44   84 1
  82   45   46 2
  83   45   47 1
  84   47   48 1
  85   48   49 1
  86   48   50 1
  87   48   51 1
  88   49   85 1
  89   49   86 1
  90   49   87 1
  91   50   88 1
  92   50   89 1
  93   50   90 1
  94   51   91 1
  95   51   92 1
  96   51   93 1

#	End of record

