#	Name: ASD01190156
#	Creating user name:	WinNT
#	Creation time:	15. 06. 2019 19:07

#	Modifying user name:	WinNT
#	Modification time:	15. 06. 2019 19:07

#	Program:	/corina/corina34_cracker 3.40 0067  02.08.2006

@<TRIPOS>MOLECULE
ASD01190156
  51   55    0    0    0
SMALL
NO_CHARGES


@<TRIPOS>ATOM
   1 C1            -0.0187     1.5258     0.0104 C.3     
   2 C2             0.0224    -0.0033     0.0436 C.3     
   3 S3             3.5452     3.3109     0.1906 S.3     
   4 C4             3.3775     2.2214    -1.1162 C.2     
   5 N5             2.1960     1.6870    -1.1021 N.2     
   6 C6             1.3821     2.0630    -0.1316 C.2     
   7 C7             1.9005     2.9557     0.7122 C.2     
   8 N8             4.3611     1.9490    -2.0541 N.3     
   9 C9             5.5800     2.7236    -1.7794 C.3     
  10 C10            6.6574     2.3487    -2.8006 C.3     
  11 O11            6.1563     2.5777    -4.1204 O.3     
  12 C12            4.9698     1.8384    -4.4221 C.3     
  13 C13            3.8754     2.2081    -3.4173 C.3     
  14 N14           -2.9427     3.1242    -4.5178 N.pl3   
  15 N15           -2.0729     2.6615    -5.5106 N.2     
  16 C16           -1.0317     2.0978    -4.9666 C.2     
  17 C17           -1.1886     2.1741    -3.5175 C.ar    
  18 C18           -0.4139     1.7509    -2.4317 C.ar    
  19 C19           -0.8522     1.9807    -1.1598 C.ar    
  20 C20           -2.0599     2.6296    -0.9335 C.ar    
  21 C21           -2.8337     3.0517    -1.9773 C.ar    
  22 C22           -2.4123     2.8317    -3.2858 C.ar    
  23 C23           -4.1569     3.7852    -4.7441 C.ar    
  24 C24           -4.2872     4.6500    -5.8228 C.ar    
  25 C25           -5.4851     5.3007    -6.0441 C.ar    
  26 C26           -6.5558     5.0913    -5.1912 C.ar    
  27 C27           -6.4280     4.2293    -4.1149 C.ar    
  28 C28           -5.2336     3.5722    -3.8934 C.ar    
  29 F29           -7.7267     5.7292    -5.4092 F       
  30 F30            0.7962    -0.4256     1.1299 F       
  31 F31           -1.2780    -0.5020     0.1754 F       
  32 F32            0.5866    -0.4805    -1.1444 F       
  33 O33           -0.5950     2.0132     1.2238 O.3     
  34 H34            1.3994     3.3859     1.5667 H       
  35 H35            5.3599     3.7883    -1.8568 H       
  36 H36            5.9365     2.4971    -0.7746 H       
  37 H37            7.5436     2.9617    -2.6363 H       
  38 H38            6.9160     1.2960    -2.6870 H       
  39 H39            4.6355     2.0823    -5.4305 H       
  40 H40            5.1794     0.7708    -4.3556 H       
  41 H41            2.9875     1.6053    -3.6080 H       
  42 H42            3.6280     3.2645    -3.5209 H       
  43 H43           -0.2008     1.6530    -5.4939 H       
  44 H44            0.5255     1.2451    -2.5993 H       
  45 H45           -2.3910     2.8022     0.0799 H       
  46 H46           -3.7705     3.5547    -1.7878 H       
  47 H47           -3.4523     4.8139    -6.4879 H       
  48 H48           -5.5867     5.9737    -6.8827 H       
  49 H49           -7.2641     4.0676    -3.4507 H       
  50 H50           -5.1358     2.8964    -3.0567 H       
  51 H51           -0.6528     2.9772     1.2723 H       
@<TRIPOS>BOND
   1    1    2 1
   2    1    6 1
   3    1   19 1
   4    1   33 1
   5    2   30 1
   6    2   31 1
   7    2   32 1
   8    3    4 1
   9    3    7 1
  10    4    5 2
  11    4    8 1
  12    5    6 1
  13    6    7 2
  14    7   34 1
  15    8    9 1
  16    8   13 1
  17    9   10 1
  18    9   35 1
  19    9   36 1
  20   10   11 1
  21   10   37 1
  22   10   38 1
  23   11   12 1
  24   12   13 1
  25   12   39 1
  26   12   40 1
  27   13   41 1
  28   13   42 1
  29   14   15 1
  30   14   22 1
  31   14   23 1
  32   15   16 2
  33   16   17 1
  34   16   43 1
  35   17   18 ar
  36   17   22 ar
  37   18   19 ar
  38   18   44 1
  39   19   20 ar
  40   20   21 ar
  41   20   45 1
  42   21   22 ar
  43   21   46 1
  44   23   24 ar
  45   23   28 ar
  46   24   25 ar
  47   24   47 1
  48   25   26 ar
  49   25   48 1
  50   26   27 ar
  51   26   29 1
  52   27   28 ar
  53   27   49 1
  54   28   50 1
  55   33   51 1

#	End of record

