#	Name: ASD08150652
#	Creating user name:	WinNT
#	Creation time:	15. 06. 2019 21:16

#	Modifying user name:	WinNT
#	Modification time:	15. 06. 2019 21:16

#	Program:	/corina/corina34_cracker 3.40 0067  02.08.2006

@<TRIPOS>MOLECULE
ASD08150652
  57   61    0    0    0
SMALL
NO_CHARGES


@<TRIPOS>ATOM
   1 N1            -0.1739     1.4917    -0.1776 N.am    
   2 C2            -0.0865     0.4639    -1.0442 C.2     
   3 C3             1.0388    -0.3851    -1.0487 C.2     
   4 C4             2.0556    -0.1764    -0.1739 C.2     
   5 C5             1.9669     0.9040     0.7391 C.ar    
   6 C6             2.9934     1.1649     1.6668 C.ar    
   7 N7             2.9090     2.1622     2.5080 N.ar    
   8 C8             1.8520     2.9882     2.5379 C.ar    
   9 C9             0.7724     2.8010     1.6401 C.ar    
  10 C10            0.8327     1.7304     0.7173 C.ar    
  11 C11           -0.3249     3.6667     1.6801 C.ar    
  12 C12           -0.3439     4.7018     2.6007 C.ar    
  13 C13            0.7283     4.8811     3.4858 C.ar    
  14 C14            1.8025     4.0474     3.4590 C.ar    
  15 O15           -0.9930     0.2651    -1.8349 O.2     
  16 C16           -1.5040     5.6248     2.6499 C.ar    
  17 C17           -1.3001     2.3246    -0.1970 C.ar    
  18 C18           -2.4357     1.9747     0.5224 C.ar    
  19 C19           -3.5450     2.7958     0.5028 C.ar    
  20 C20           -3.5262     3.9706    -0.2357 C.ar    
  21 C21           -2.3926     4.3205    -0.9548 C.ar    
  22 C22           -1.2798     3.5033    -0.9308 C.ar    
  23 O23           -4.6192     4.7786    -0.2549 O.3     
  24 C24           -2.6431     5.3681     1.8919 C.ar    
  25 N25           -3.6761     6.1859     1.9328 N.ar    
  26 C26           -3.6747     7.2728     2.6869 C.ar    
  27 C27           -2.5734     7.5961     3.4713 C.ar    
  28 C28           -1.4714     6.7631     3.4633 C.ar    
  29 C29           -6.9589     5.2500     0.1248 C.3     
  30 C30           -5.7950     4.2950     0.3975 C.3     
  31 O31           -7.2985     5.2031    -1.2625 O.3     
  32 O32           -4.7627     8.0831     2.6947 O.3     
  33 C33           -5.8199     7.7583     1.7898 C.3     
  34 C34           -2.3732     5.5961    -1.7569 C.3     
  35 F35           -1.1676     5.6862    -2.4608 F       
  36 F36           -3.4416     5.5953    -2.6601 F       
  37 F37           -2.4926     6.6912    -0.8944 F       
  38 H38            1.0920    -1.2045    -1.7502 H       
  39 H39            2.9195    -0.8244    -0.1735 H       
  40 H40            3.8665     0.5294     1.6841 H       
  41 H41           -1.1511     3.5298     0.9981 H       
  42 H42            0.7010     5.6922     4.1984 H       
  43 H43            2.6195     4.1998     4.1487 H       
  44 H44           -2.4507     1.0601     1.0966 H       
  45 H45           -4.4280     2.5239     1.0621 H       
  46 H46           -0.3955     3.7784    -1.4865 H       
  47 H47           -2.6807     4.4904     1.2638 H       
  48 H48           -2.5812     8.4857     4.0836 H       
  49 H49           -0.6023     6.9896     4.0631 H       
  50 H50           -7.8215     4.9509     0.7203 H       
  51 H51           -6.6665     6.2651     0.3932 H       
  52 H52           -6.0409     3.3041     0.0157 H       
  53 H53           -5.6168     4.2367     1.4712 H       
  54 H54           -8.0305     5.7853    -1.5081 H       
  55 H55           -5.4237     7.6931     0.7765 H       
  56 H56           -6.2576     6.8005     2.0712 H       
  57 H57           -6.5849     8.5336     1.8316 H       
@<TRIPOS>BOND
   1    1    2 am
   2    1   10 1
   3    1   17 1
   4    2    3 1
   5    2   15 2
   6    3    4 2
   7    3   38 1
   8    4    5 1
   9    4   39 1
  10    5    6 ar
  11    5   10 ar
  12    6    7 ar
  13    6   40 1
  14    7    8 ar
  15    8    9 ar
  16    8   14 ar
  17    9   10 ar
  18    9   11 ar
  19   11   12 ar
  20   11   41 1
  21   12   13 ar
  22   12   16 1
  23   13   14 ar
  24   13   42 1
  25   14   43 1
  26   16   24 ar
  27   16   28 ar
  28   17   18 ar
  29   17   22 ar
  30   18   19 ar
  31   18   44 1
  32   19   20 ar
  33   19   45 1
  34   20   21 ar
  35   20   23 1
  36   21   22 ar
  37   21   34 1
  38   22   46 1
  39   23   30 1
  40   24   25 ar
  41   24   47 1
  42   25   26 ar
  43   26   27 ar
  44   26   32 1
  45   27   28 ar
  46   27   48 1
  47   28   49 1
  48   29   30 1
  49   29   31 1
  50   29   50 1
  51   29   51 1
  52   30   52 1
  53   30   53 1
  54   31   54 1
  55   32   33 1
  56   33   55 1
  57   33   56 1
  58   33   57 1
  59   34   35 1
  60   34   36 1
  61   34   37 1

#	End of record

