#	Name: ASD03430500
#	Creating user name:	WinNT
#	Creation time:	15. 06. 2019 20:41

#	Modifying user name:	WinNT
#	Modification time:	15. 06. 2019 20:41

#	Program:	/corina/corina34_cracker 3.40 0067  02.08.2006

@<TRIPOS>MOLECULE
ASD03430500
  41   45    0    0    0
SMALL
NO_CHARGES


@<TRIPOS>ATOM
   1 C1            -0.0184     1.5028     0.0103 C.2     
   2 C2             0.0021    -0.0041     0.0020 C.3     
   3 N3             1.0915     2.1639     0.0033 N.2     
   4 N4            -1.2203     2.1751     0.0197 N.pl3   
   5 O5             6.2459     2.8794     2.0976 O.3     
   6 C6             7.6663     2.8233     2.3260 C.3     
   7 O7             7.8789     1.4934     2.8350 O.3     
   8 C8             6.8679     0.7368     2.3152 C.ar    
   9 C9             5.8636     1.5896     1.8629 C.ar    
  10 C10            6.7212    -0.6329     2.1884 C.ar    
  11 C11            5.5735    -1.1688     1.6121 C.ar    
  12 C12            4.5736    -0.3071     1.1716 C.ar    
  13 C13            4.7194     1.0592     1.2910 C.ar    
  14 O14            5.2412    -2.4710     1.3795 O.3     
  15 C15            3.4673    -1.1739     0.6323 C.3     
  16 C16            3.8195    -2.5682     1.1684 C.3     
  17 N17            1.3897    -0.4735    -0.0138 N.am    
  18 C18            2.1130    -0.7212     1.0965 C.2     
  19 C19            3.4026    -1.1504    -0.8661 C.ar    
  20 C20            4.3041    -1.4527    -1.8622 C.ar    
  21 C21            3.9367    -1.3289    -3.1903 C.ar    
  22 C22            2.6624    -0.9003    -3.5148 C.ar    
  23 C23            1.7562    -0.5954    -2.5207 C.ar    
  24 C24            2.1172    -0.7175    -1.1811 C.ar    
  25 O25            1.7424    -0.6020     2.2452 O.2     
  26 O26            1.0723     3.5797     0.0110 O.3     
  27 H27           -0.4983    -0.3791     0.8948 H       
  28 H28           -0.5153    -0.3696    -0.8850 H       
  29 H29           -2.0537     1.6787     0.0209 H       
  30 H30           -1.2334     3.1450     0.0250 H       
  31 H31            8.2103     2.9676     1.3925 H       
  32 H32            7.9653     3.5680     3.0637 H       
  33 H33            7.5027    -1.2907     2.5390 H       
  34 H34            3.9391     1.7171     0.9379 H       
  35 H35            3.5894    -3.3363     0.4301 H       
  36 H36            3.3012    -2.7643     2.1070 H       
  37 H37            5.2987    -1.7870    -1.6065 H       
  38 H38            4.6432    -1.5667    -3.9717 H       
  39 H39            2.3756    -0.8035    -4.5515 H       
  40 H40            0.7631    -0.2608    -2.7820 H       
  41 H41            1.9502     3.9850     0.0048 H       
@<TRIPOS>BOND
   1    1    2 1
   2    1    3 2
   3    1    4 1
   4    2   17 1
   5    2   27 1
   6    2   28 1
   7    3   26 1
   8    4   29 1
   9    4   30 1
  10    5    6 1
  11    5    9 1
  12    6    7 1
  13    6   31 1
  14    6   32 1
  15    7    8 1
  16    8    9 ar
  17    8   10 ar
  18    9   13 ar
  19   10   11 ar
  20   10   33 1
  21   11   12 ar
  22   11   14 1
  23   12   13 ar
  24   12   15 1
  25   13   34 1
  26   14   16 1
  27   15   16 1
  28   15   18 1
  29   15   19 1
  30   16   35 1
  31   16   36 1
  32   17   18 am
  33   17   24 1
  34   18   25 2
  35   19   20 ar
  36   19   24 ar
  37   20   21 ar
  38   20   37 1
  39   21   22 ar
  40   21   38 1
  41   22   23 ar
  42   22   39 1
  43   23   24 ar
  44   23   40 1
  45   26   41 1

#	End of record

