#	Name: ASD01901204
#	Creating user name:	WinNT
#	Creation time:	15. 06. 2019 19:53

#	Modifying user name:	WinNT
#	Modification time:	15. 06. 2019 19:53

#	Program:	/corina/corina34_cracker 3.40 0067  02.08.2006

@<TRIPOS>MOLECULE
ASD01901204
  57   60    0    0    0
SMALL
NO_CHARGES


@<TRIPOS>ATOM
   1 C1            -0.6869     1.4633     0.5895 C.ar    
   2 C2            -0.7558     0.0878     0.6625 C.ar    
   3 C3             0.4039    -0.6672     0.6679 C.ar    
   4 C4             1.6402    -0.0494     0.6001 C.ar    
   5 C5             1.7249     1.3252     0.5271 C.ar    
   6 C6             0.5581     2.0943     0.5207 C.ar    
   7 C7             0.6378     3.5220     0.4442 C.1     
   8 C8             0.7032     4.6925     0.3814 C.1     
   9 C9             0.7829     6.1202     0.3048 C.ar    
  10 C10            2.0292     6.7496     0.2361 C.ar    
  11 C11            2.1022     8.1257     0.1625 C.ar    
  12 C12            0.9374     8.8865     0.1565 C.ar    
  13 C13           -0.3046     8.2635     0.2248 C.ar    
  14 C14           -0.3855     6.8875     0.2928 C.ar    
  15 N15            1.0155    10.2848     0.0821 N.am    
  16 C16            1.0189    10.8851    -1.1222 C.2     
  17 C17            1.2027    12.3789    -1.2186 C.3     
  18 C18            0.5392    13.0462    -0.0118 C.3     
  19 N19            0.9224    12.3378     1.2109 N.am    
  20 C20            1.0802    11.0051     1.2142 C.2     
  21 O21            0.8748    10.2255    -2.1292 O.2     
  22 O22            1.2916    10.4367     2.2675 O.2     
  23 C23            1.0006    14.5022     0.0768 C.3     
  24 C24           -0.9590    13.0030    -0.1685 C.ar    
  25 C25           -1.5689    13.6087    -1.2567 C.ar    
  26 C26           -2.9498    13.5437    -1.3597 C.ar    
  27 C27           -3.6679    12.8822    -0.3812 C.ar    
  28 N28           -3.0542    12.3176     0.6401 N.ar    
  29 C29           -1.7420    12.3546     0.7675 C.ar    
  30 F30           -1.4332     9.0061     0.2187 F       
  31 F31            3.3063     8.7349     0.0965 F       
  32 C32            1.1310    13.0938     2.4483 C.3     
  33 C33            0.1361    12.6197     3.5095 C.3     
  34 C34            2.5585    12.8669     2.9501 C.3     
  35 H35           -1.5929     2.0510     0.5809 H       
  36 H36           -1.7173    -0.4013     0.7161 H       
  37 H37            0.3437    -1.7440     0.7257 H       
  38 H38            2.5411    -0.6451     0.6048 H       
  39 H39            2.6905     1.8061     0.4746 H       
  40 H40            2.9338     6.1597     0.2411 H       
  41 H41           -1.3501     6.4043     0.3409 H       
  42 H42            2.2667    12.6152    -1.2261 H       
  43 H43            0.7412    12.7441    -2.1361 H       
  44 H44            2.0627    14.5327     0.3198 H       
  45 H45            0.8326    14.9955    -0.8806 H       
  46 H46            0.4351    15.0159     0.8543 H       
  47 H47           -0.9820    14.1191    -2.0060 H       
  48 H48           -3.4582    14.0045    -2.1937 H       
  49 H49           -4.7440    12.8274    -0.4539 H       
  50 H50           -1.2743    11.8762     1.6153 H       
  51 H51            0.9781    14.1556     2.2555 H       
  52 H52            0.2913    13.1821     4.4302 H       
  53 H53           -0.8809    12.7813     3.1521 H       
  54 H54            0.2890    11.5578     3.7023 H       
  55 H55            3.2673    13.2046     2.1940 H       
  56 H56            2.7137    13.4294     3.8707 H       
  57 H57            2.7114    11.8050     3.1429 H       
@<TRIPOS>BOND
   1    1    2 ar
   2    1    6 ar
   3    1   35 1
   4    2    3 ar
   5    2   36 1
   6    3    4 ar
   7    3   37 1
   8    4    5 ar
   9    4   38 1
  10    5    6 ar
  11    5   39 1
  12    6    7 1
  13    7    8 3
  14    8    9 1
  15    9   10 ar
  16    9   14 ar
  17   10   11 ar
  18   10   40 1
  19   11   12 ar
  20   11   31 1
  21   12   13 ar
  22   12   15 1
  23   13   14 ar
  24   13   30 1
  25   14   41 1
  26   15   16 am
  27   15   20 am
  28   16   17 1
  29   16   21 2
  30   17   18 1
  31   17   42 1
  32   17   43 1
  33   18   19 1
  34   18   23 1
  35   18   24 1
  36   19   20 am
  37   19   32 1
  38   20   22 2
  39   23   44 1
  40   23   45 1
  41   23   46 1
  42   24   25 ar
  43   24   29 ar
  44   25   26 ar
  45   25   47 1
  46   26   27 ar
  47   26   48 1
  48   27   28 ar
  49   27   49 1
  50   28   29 ar
  51   29   50 1
  52   32   33 1
  53   32   34 1
  54   32   51 1
  55   33   52 1
  56   33   53 1
  57   33   54 1
  58   34   55 1
  59   34   56 1
  60   34   57 1

#	End of record

