#	Name: ASD09116490
#	Creating user name:	WinNT
#	Creation time:	15. 06. 2019 21:21

#	Modifying user name:	WinNT
#	Modification time:	15. 06. 2019 21:21

#	Program:	/corina/corina34_cracker 3.40 0067  02.08.2006

@<TRIPOS>MOLECULE
ASD09116490
  75   81    0    0    0
SMALL
NO_CHARGES


@<TRIPOS>ATOM
   1 N1            -0.5134     3.7199     0.5628 N.2     
   2 N2            -1.0796     4.8602     1.1551 N.pl3   
   3 C3             0.7820     3.9184     0.5116 C.2     
   4 N4             1.0607     5.1170     1.0374 N.2     
   5 C5            -0.0525     5.6980     1.4304 C.2     
   6 N6            -0.1551     6.9436     2.0201 N.pl3   
   7 C7            -2.4338     5.0857     1.4089 C.ar    
   8 N8             1.7186     3.0238    -0.0070 N.pl3   
   9 C9             3.0614     3.3975    -0.1060 C.ar    
  10 C10            4.0604     2.4377    -0.0003 C.ar    
  11 C11            3.3996     4.7290    -0.3162 C.ar    
  12 C12            4.7315     5.0876    -0.4126 C.ar    
  13 C13            5.7151     4.1386    -0.3028 C.ar    
  14 C14            5.3874     2.8088    -0.0989 C.ar    
  15 N15           -2.7973     5.9186     2.3727 N.ar    
  16 N16           -4.0296     6.1534     2.6534 N.ar    
  17 C17           -5.0154     5.5704     1.9905 C.ar    
  18 C18           -4.7273     4.6920     0.9421 C.ar    
  19 C19           -3.4056     4.4373     0.6426 C.ar    
  20 C20           -6.4351     5.7973     2.3472 C.ar    
  21 C21           -7.2731     4.6939     2.5156 C.ar    
  22 C22           -6.7030     3.3080     2.3863 C.3     
  23 C23           -6.4890     2.9282     0.9235 C.3     
  24 C24           -5.8485     4.0801     0.1537 C.3     
  25 C25           -6.9374     7.0836     2.5103 C.ar    
  26 C26           -8.2717     7.2624     2.8205 C.ar    
  27 C27           -9.1035     6.1669     2.9660 C.ar    
  28 C28           -8.6054     4.8846     2.8128 C.ar    
  29 C29            5.0974     6.5398    -0.6397 C.3     
  30 C30            5.6366     6.6867    -2.0647 C.3     
  31 C31            7.1194     6.3763    -2.1176 C.3     
  32 C32            7.4651     4.9227    -1.8612 C.3     
  33 C33            7.1723     4.5385    -0.4091 C.3     
  34 N34            7.6264     6.7486    -3.4451 N.3     
  35 C35            6.8354     6.1077    -4.5116 C.3     
  36 C36            7.5783     8.2135    -3.6388 C.3     
  37 C37            7.2758     8.4035    -5.1462 C.3     
  38 C38            6.2948     7.2330    -5.4188 C.3     
  39 C39            8.9269     8.8425    -3.2828 C.3     
  40 H40            0.6424     7.4727     2.1779 H       
  41 H41           -1.0247     7.2888     2.2763 H       
  42 H42            1.4376     2.1425    -0.2988 H       
  43 H43            3.7996     1.4019     0.1593 H       
  44 H44            2.6272     5.4787    -0.4041 H       
  45 H45            6.1662     2.0654    -0.0135 H       
  46 H46           -3.1319     3.7556    -0.1491 H       
  47 H47           -5.7475     3.2652     2.9092 H       
  48 H48           -7.3902     2.5957     2.8428 H       
  49 H49           -5.8380     2.0555     0.8709 H       
  50 H50           -7.4507     2.6854     0.4715 H       
  51 H51           -6.6030     4.8409    -0.0463 H       
  52 H52           -5.4585     3.7056    -0.7927 H       
  53 H53           -6.2877     7.9386     2.3954 H       
  54 H54           -8.6660     8.2594     2.9500 H       
  55 H55          -10.1476     6.3130     3.2000 H       
  56 H56           -9.2605     4.0336     2.9269 H       
  57 H57            4.2124     7.1641    -0.5168 H       
  58 H58            5.8637     6.8405     0.0747 H       
  59 H59            5.1032     6.0000    -2.7221 H       
  60 H60            5.4722     7.7086    -2.4063 H       
  61 H61            7.6277     6.9890    -1.3730 H       
  62 H62            6.8738     4.2916    -2.5247 H       
  63 H63            8.5237     4.7646    -2.0671 H       
  64 H64            7.3665     5.3911     0.2417 H       
  65 H65            7.8045     3.6999    -0.1175 H       
  66 H66            7.4693     5.4366    -5.0911 H       
  67 H67            6.0053     5.5524    -4.0749 H       
  68 H68            6.7835     8.6504    -3.0343 H       
  69 H69            6.7970     9.3652    -5.3301 H       
  70 H70            8.1824     8.3000    -5.7424 H       
  71 H71            6.3323     6.9348    -6.4666 H       
  72 H72            5.2796     7.5060    -5.1308 H       
  73 H73            9.6874     8.4902    -3.9797 H       
  74 H74            8.8499     9.9278    -3.3472 H       
  75 H75            9.2041     8.5574    -2.2679 H       
@<TRIPOS>BOND
   1    1    2 1
   2    1    3 2
   3    2    7 1
   4    2    5 1
   5    3    4 1
   6    3    8 1
   7    4    5 2
   8    5    6 1
   9    6   40 1
  10    6   41 1
  11    7   15 ar
  12    7   19 ar
  13    8    9 1
  14    8   42 1
  15    9   10 ar
  16    9   11 ar
  17   10   14 ar
  18   10   43 1
  19   11   12 ar
  20   11   44 1
  21   12   13 ar
  22   12   29 1
  23   13   14 ar
  24   13   33 1
  25   14   45 1
  26   15   16 ar
  27   16   17 ar
  28   17   18 ar
  29   17   20 1
  30   18   19 ar
  31   18   24 1
  32   19   46 1
  33   20   21 ar
  34   20   25 ar
  35   21   22 1
  36   21   28 ar
  37   22   23 1
  38   22   47 1
  39   22   48 1
  40   23   24 1
  41   23   49 1
  42   23   50 1
  43   24   51 1
  44   24   52 1
  45   25   26 ar
  46   25   53 1
  47   26   27 ar
  48   26   54 1
  49   27   28 ar
  50   27   55 1
  51   28   56 1
  52   29   30 1
  53   29   57 1
  54   29   58 1
  55   30   31 1
  56   30   59 1
  57   30   60 1
  58   31   32 1
  59   31   34 1
  60   31   61 1
  61   32   33 1
  62   32   62 1
  63   32   63 1
  64   33   64 1
  65   33   65 1
  66   34   35 1
  67   34   36 1
  68   35   38 1
  69   35   66 1
  70   35   67 1
  71   36   37 1
  72   36   39 1
  73   36   68 1
  74   37   38 1
  75   37   69 1
  76   37   70 1
  77   38   71 1
  78   38   72 1
  79   39   73 1
  80   39   74 1
  81   39   75 1

#	End of record

