#	Name: ASD01901109
#	Creating user name:	WinNT
#	Creation time:	15. 06. 2019 19:53

#	Modifying user name:	WinNT
#	Modification time:	15. 06. 2019 19:53

#	Program:	/corina/corina34_cracker 3.40 0067  02.08.2006

@<TRIPOS>MOLECULE
ASD01901109
  40   43    0    0    0
SMALL
NO_CHARGES


@<TRIPOS>ATOM
   1 C1            -0.0184     1.5028     0.0103 C.2     
   2 C2             0.0021    -0.0041     0.0020 C.3     
   3 C3             2.4725     1.5850    -0.0130 C.ar    
   4 C4             1.2453     2.2555     0.0023 C.ar    
   5 C5             1.2403     3.6588     0.0094 C.ar    
   6 C6             2.4551     4.3180     0.0009 C.ar    
   7 C7             3.6277     3.5799    -0.0142 C.ar    
   8 N8             3.6028     2.2592    -0.0206 N.ar    
   9 Cl9            5.1552     4.4048    -0.0255 Cl      
  10 O10           -1.3386    -0.4987     0.0122 O.3     
  11 C11           -1.4982    -1.8475     0.0064 C.ar    
  12 C12           -2.7839    -2.4035     0.0157 C.ar    
  13 C13           -2.9363    -3.7902     0.0093 C.ar    
  14 C14           -1.8226    -4.6047    -0.0062 C.ar    
  15 C15           -0.5542    -4.0515    -0.0149 C.ar    
  16 C16           -0.3906    -2.6787    -0.0144 C.ar    
  17 O17           -4.1656    -0.5004     0.8855 O.3     
  18 C18           -3.9722    -1.5259     0.0328 C.2     
  19 C19           -5.0305    -1.6318    -0.8065 C.2     
  20 C20           -5.9589    -0.5647    -0.4259 C.ar    
  21 C21           -5.3461     0.1067     0.6476 C.ar    
  22 C22           -7.2056    -0.1470    -0.8928 C.ar    
  23 C23           -7.8286     0.9176    -0.3024 C.ar    
  24 C24           -7.2290     1.5834     0.7564 C.ar    
  25 C25           -5.9969     1.1851     1.2320 C.ar    
  26 O26           -1.0766     2.0947     0.0185 O.2     
  27 H27            0.5123    -0.3556    -0.8948 H       
  28 H28            0.5293    -0.3651     0.8851 H       
  29 H29            2.4929     0.5052    -0.0142 H       
  30 H30            0.3113     4.2094     0.0209 H       
  31 H31            2.4900     5.3975     0.0056 H       
  32 H32           -3.9246    -4.2257     0.0167 H       
  33 H33           -1.9413    -5.6781    -0.0112 H       
  34 H34            0.3126    -4.6957    -0.0263 H       
  35 H35            0.6023    -2.2538    -0.0257 H       
  36 H36           -5.1626    -2.3562    -1.5965 H       
  37 H37           -7.6764    -0.6619    -1.7172 H       
  38 H38           -8.7935     1.2423    -0.6630 H       
  39 H39           -7.7322     2.4226     1.2135 H       
  40 H40           -5.5396     1.7107     2.0572 H       
@<TRIPOS>BOND
   1    1    2 1
   2    1    4 1
   3    1   26 2
   4    2   10 1
   5    2   27 1
   6    2   28 1
   7    3    4 ar
   8    3    8 ar
   9    3   29 1
  10    4    5 ar
  11    5    6 ar
  12    5   30 1
  13    6    7 ar
  14    6   31 1
  15    7    8 ar
  16    7    9 1
  17   10   11 1
  18   11   12 ar
  19   11   16 ar
  20   12   13 ar
  21   12   18 1
  22   13   14 ar
  23   13   32 1
  24   14   15 ar
  25   14   33 1
  26   15   16 ar
  27   15   34 1
  28   16   35 1
  29   17   18 1
  30   17   21 1
  31   18   19 2
  32   19   20 1
  33   19   36 1
  34   20   21 ar
  35   20   22 ar
  36   21   25 ar
  37   22   23 ar
  38   22   37 1
  39   23   24 ar
  40   23   38 1
  41   24   25 ar
  42   24   39 1
  43   25   40 1

#	End of record

