#	Name: ASD01152424
#	Creating user name:	WinNT
#	Creation time:	15. 06. 2019 19:05

#	Modifying user name:	WinNT
#	Modification time:	15. 06. 2019 19:05

#	Program:	/corina/corina34_cracker 3.40 0067  02.08.2006

@<TRIPOS>MOLECULE
ASD01152424
  50   53    0    0    0
SMALL
NO_CHARGES


@<TRIPOS>ATOM
   1 C1            -0.4386     1.3776     0.1184 C.2     
   2 N2            -0.3479     0.0885    -0.0770 N.2     
   3 N3            -1.3483    -0.7616     0.4091 N.am    
   4 C4            -2.4071    -0.2717     1.0777 C.2     
   5 N5            -2.5385     1.0493     1.3002 N.am    
   6 C6            -1.5964     1.9065     0.8552 C.2     
   7 O7            -1.7079     3.1022     1.0525 O.2     
   8 O8            -3.2606    -1.0349     1.4877 O.2     
   9 C9            -1.2451    -2.1406     0.1960 C.ar    
  10 C10           -3.7023     1.5561     2.0316 C.3     
  11 C11           -3.3916     1.5943     3.5057 C.ar    
  12 C12           -2.3299    -2.8499    -0.2998 C.ar    
  13 C13           -0.0543    -2.8005     0.4750 C.ar    
  14 C14            0.0484    -4.1617     0.2643 C.ar    
  15 C15           -1.0317    -4.8717    -0.2247 C.ar    
  16 C16           -2.2232    -4.2173    -0.5102 C.ar    
  17 C17           -2.6460     2.6466     4.0304 C.ar    
  18 C18           -3.8520     0.5894     4.3315 C.ar    
  19 C19           -3.5726     0.6147     5.6851 C.ar    
  20 C20           -2.8305     1.6562     6.2142 C.ar    
  21 C21           -2.3783     2.6651     5.3935 C.ar    
  22 C22           -1.5761     3.9215     5.6719 C.3     
  23 C23           -1.8045     4.7402     4.3792 C.3     
  24 O24           -2.0907     3.7207     3.4048 O.3     
  25 N25           -3.3163    -4.9371    -1.0054 N.am    
  26 C26           -3.5425    -6.1960    -0.5806 C.2     
  27 O27           -2.7524    -6.7356     0.1648 O.2     
  28 C28           -4.7771    -6.9330    -1.0317 C.3     
  29 O29            0.5244     2.2153    -0.3469 O.3     
  30 C30            1.6188     1.6204    -1.0472 C.3     
  31 H31           -3.9401     2.5615     1.6842 H       
  32 H32           -4.5551     0.9001     1.8568 H       
  33 H33           -3.2552    -2.3389    -0.5210 H       
  34 H34            0.7918    -2.2484     0.8566 H       
  35 H35            0.9749    -4.6723     0.4819 H       
  36 H36           -0.9479    -5.9358    -0.3890 H       
  37 H37           -4.4339    -0.2211     3.9182 H       
  38 H38           -3.9325    -0.1753     6.3276 H       
  39 H39           -2.6100     1.6799     7.2712 H       
  40 H40           -1.9680     4.4492     6.5414 H       
  41 H41           -0.5196     3.6879     5.8034 H       
  42 H42           -2.6513     5.4166     4.4951 H       
  43 H43           -0.9039     5.2904     4.1064 H       
  44 H44           -3.9112    -4.5299    -1.6545 H       
  45 H45           -5.3617    -6.2925    -1.6921 H       
  46 H46           -4.4855    -7.8368    -1.5667 H       
  47 H47           -5.3771    -7.2028    -0.1627 H       
  48 H48            2.3136     2.3983    -1.3636 H       
  49 H49            2.1330     0.9195    -0.3895 H       
  50 H50            1.2445     1.0894    -1.9225 H       
@<TRIPOS>BOND
   1    1    2 2
   2    1   29 1
   3    1    6 1
   4    2    3 1
   5    3    4 am
   6    3    9 1
   7    4    5 am
   8    4    8 2
   9    5    6 am
  10    5   10 1
  11    6    7 2
  12    9   12 ar
  13    9   13 ar
  14   10   11 1
  15   10   31 1
  16   10   32 1
  17   11   17 ar
  18   11   18 ar
  19   12   16 ar
  20   12   33 1
  21   13   14 ar
  22   13   34 1
  23   14   15 ar
  24   14   35 1
  25   15   16 ar
  26   15   36 1
  27   16   25 1
  28   17   21 ar
  29   17   24 1
  30   18   19 ar
  31   18   37 1
  32   19   20 ar
  33   19   38 1
  34   20   21 ar
  35   20   39 1
  36   21   22 1
  37   22   23 1
  38   22   40 1
  39   22   41 1
  40   23   24 1
  41   23   42 1
  42   23   43 1
  43   25   26 am
  44   25   44 1
  45   26   27 2
  46   26   28 1
  47   28   45 1
  48   28   46 1
  49   28   47 1
  50   29   30 1
  51   30   48 1
  52   30   49 1
  53   30   50 1

#	End of record

