#	Name: ASD02508135
#	Creating user name:	WinNT
#	Creation time:	15. 06. 2019 20:23

#	Modifying user name:	WinNT
#	Modification time:	15. 06. 2019 20:23

#	Program:	/corina/corina34_cracker 3.40 0067  02.08.2006

@<TRIPOS>MOLECULE
ASD02508135
  42   44    0    0    0
SMALL
NO_CHARGES


@<TRIPOS>ATOM
   1 C1             0.1966     1.5771    -0.2552 C.ar    
   2 C2             1.2336     1.9839     0.5696 C.ar    
   3 C3             0.3304     0.4234    -1.0274 C.ar    
   4 C4             1.5034    -0.3125    -0.9661 C.ar    
   5 C5             2.5327     0.0992    -0.1422 C.ar    
   6 C6             2.3987     1.2439     0.6243 C.ar    
   7 N7            -1.0728     2.0897    -0.5213 N.am    
   8 C8            -1.6595     1.2731    -1.4188 C.2     
   9 O9            -0.8216     0.2704    -1.7254 O.3     
  10 S10            4.0230    -0.8377    -0.0658 S.o2    
  11 N11            4.1567    -1.4211     1.4783 N.am    
  12 C12            3.2456    -2.3700     1.9476 C.ar    
  13 O13           -2.7765     1.4196    -1.8764 O.2     
  14 C14           -1.6612     3.2953     0.0675 C.3     
  15 O15            3.8304    -1.9672    -0.9062 O.2     
  16 O16            5.0878     0.0872    -0.2389 O.2     
  17 C17            3.6978    -3.4870     2.6386 C.ar    
  18 C18            1.8848    -2.1960     1.7295 C.ar    
  19 C19            0.9867    -3.1363     2.1948 C.ar    
  20 C20            1.4406    -4.2498     2.8777 C.ar    
  21 C21            2.7942    -4.4234     3.1012 C.ar    
  22 C22            3.5276     1.6849     1.5200 C.3     
  23 C23           -0.4898    -2.9483     1.9586 C.3     
  24 C24            3.2843    -5.6384     3.8459 C.3     
  25 H25            1.1311     2.8773     1.1677 H       
  26 H26            1.6123    -1.2069    -1.5616 H       
  27 H27            4.8677    -1.1037     2.0568 H       
  28 H28           -1.4188     4.1581    -0.5528 H       
  29 H29           -2.7437     3.1809     0.1239 H       
  30 H30           -1.2588     3.4437     1.0696 H       
  31 H31            4.7548    -3.6233     2.8135 H       
  32 H32            1.5295    -1.3263     1.1968 H       
  33 H33            0.7361    -4.9832     3.2412 H       
  34 H34            4.2419     2.2714     0.9421 H       
  35 H35            3.1304     2.2936     2.3322 H       
  36 H36            4.0270     0.8086     1.9332 H       
  37 H37           -0.7690    -3.4156     1.0143 H       
  38 H38           -1.0495    -3.4101     2.7720 H       
  39 H39           -0.7187    -1.8834     1.9188 H       
  40 H40            3.4834    -6.4428     3.1378 H       
  41 H41            4.2007    -5.3910     4.3818 H       
  42 H42            2.5233    -5.9603     4.5568 H       
@<TRIPOS>BOND
   1    1    2 ar
   2    1    3 ar
   3    1    7 1
   4    2    6 ar
   5    2   25 1
   6    3    4 ar
   7    3    9 1
   8    4    5 ar
   9    4   26 1
  10    5    6 ar
  11    5   10 1
  12    6   22 1
  13    7    8 am
  14    7   14 1
  15    8    9 1
  16    8   13 2
  17   10   11 am
  18   10   15 2
  19   10   16 2
  20   11   12 1
  21   11   27 1
  22   12   17 ar
  23   12   18 ar
  24   14   28 1
  25   14   29 1
  26   14   30 1
  27   17   21 ar
  28   17   31 1
  29   18   19 ar
  30   18   32 1
  31   19   20 ar
  32   19   23 1
  33   20   21 ar
  34   20   33 1
  35   21   24 1
  36   22   34 1
  37   22   35 1
  38   22   36 1
  39   23   37 1
  40   23   38 1
  41   23   39 1
  42   24   40 1
  43   24   41 1
  44   24   42 1

#	End of record

