#	Name: ASD01028365
#	Creating user name:	WinNT
#	Creation time:	15. 06. 2019 18:57

#	Modifying user name:	WinNT
#	Modification time:	15. 06. 2019 18:57

#	Program:	/corina/corina34_cracker 3.40 0067  02.08.2006

@<TRIPOS>MOLECULE
ASD01028365
  50   54    0    0    0
SMALL
NO_CHARGES


@<TRIPOS>ATOM
   1 C1            -0.0171     1.4105     0.0098 C.ar    
   2 C2             0.0021    -0.0041     0.0020 C.ar    
   3 C3             1.2172     2.1062     0.0017 C.ar    
   4 C4             2.3840     1.3600    -0.0135 C.ar    
   5 C5             2.3156    -0.0268    -0.0203 C.ar    
   6 N6             1.1664    -0.6615    -0.0123 N.ar    
   7 N7             1.2559     3.4929     0.0084 N.pl3   
   8 C8             2.5445     4.1898    -0.0001 C.3     
   9 C9             2.3106     5.6785     0.0096 C.2     
  10 N10            2.1965     6.4648     1.1090 N.pl3   
  11 C11            1.9926     7.7417     0.6404 C.2     
  12 N12            1.9931     7.6695    -0.6803 N.2     
  13 N13            2.1862     6.4494    -1.0419 N.2     
  14 N14            2.2457     6.2225     2.4831 N.2     
  15 C15            2.0982     7.2092     3.3397 C.2     
  16 C16            1.8871     8.5302     2.8902 C.2     
  17 C17            1.8348     8.7972     1.5585 C.2     
  18 C18            2.1538     6.9305     4.7953 C.ar    
  19 C19            2.3616     5.6274     5.2478 C.ar    
  20 C20            2.4136     5.3664     6.5986 C.ar    
  21 C21            2.2581     6.4072     7.5173 C.ar    
  22 C22            2.0498     7.7132     7.0634 C.ar    
  23 C23            2.0040     7.9722     5.7101 C.ar    
  24 C24           -1.2223    -0.6977     0.0101 C.ar    
  25 C25           -2.3811     0.0331     0.0251 C.ar    
  26 C26           -2.3227     1.4307     0.0320 C.ar    
  27 N27           -1.1775     2.0678     0.0299 N.ar    
  28 O28           -3.5841    -0.5981     0.0329 O.3     
  29 C29           -4.7501     0.2280     0.0486 C.3     
  30 C30            2.3132     6.1282     8.9667 C.2     
  31 Cl31           1.8557     9.0085     8.2028 Cl      
  32 O32            2.1778     7.0344     9.7657 O.2     
  33 N33            2.5135     4.8690     9.4035 N.am    
  34 H34            3.3437     1.8552    -0.0203 H       
  35 H35            3.2319    -0.5984    -0.0326 H       
  36 H36            0.4298     4.0012     0.0188 H       
  37 H37            3.1169     3.9062     0.8831 H       
  38 H38            3.1002     3.9152    -0.8968 H       
  39 H39            1.7669     9.3303     3.6055 H       
  40 H40            1.6739     9.8063     1.2091 H       
  41 H41            2.4815     4.8224     4.5378 H       
  42 H42            2.5741     4.3572     6.9479 H       
  43 H43            1.8435     8.9806     5.3585 H       
  44 H44           -1.2479    -1.7774     0.0042 H       
  45 H45           -3.2420     1.9974     0.0439 H       
  46 H46           -4.7411     0.8522     0.9420 H       
  47 H47           -4.7579     0.8623    -0.8378 H       
  48 H48           -5.6406    -0.4006     0.0534 H       
  49 H49            2.6216     4.1460     8.7660 H       
  50 H50            2.5497     4.6859    10.3553 H       
@<TRIPOS>BOND
   1    1    2 ar
   2    1    3 ar
   3    1   27 ar
   4    2   24 ar
   5    2    6 ar
   6    3    4 ar
   7    3    7 1
   8    4    5 ar
   9    4   34 1
  10    5    6 ar
  11    5   35 1
  12    7    8 1
  13    7   36 1
  14    8    9 1
  15    8   37 1
  16    8   38 1
  17    9   10 1
  18    9   13 2
  19   10   11 1
  20   10   14 1
  21   11   12 2
  22   11   17 1
  23   12   13 1
  24   14   15 2
  25   15   16 1
  26   15   18 1
  27   16   17 2
  28   16   39 1
  29   17   40 1
  30   18   19 ar
  31   18   23 ar
  32   19   20 ar
  33   19   41 1
  34   20   21 ar
  35   20   42 1
  36   21   22 ar
  37   21   30 1
  38   22   23 ar
  39   22   31 1
  40   23   43 1
  41   24   25 ar
  42   24   44 1
  43   25   26 ar
  44   25   28 1
  45   26   27 ar
  46   26   45 1
  47   28   29 1
  48   29   46 1
  49   29   47 1
  50   29   48 1
  51   30   32 2
  52   30   33 am
  53   33   49 1
  54   33   50 1

#	End of record

