#	Name: ASD08178400
#	Creating user name:	WinNT
#	Creation time:	15. 06. 2019 21:18

#	Modifying user name:	WinNT
#	Modification time:	15. 06. 2019 21:18

#	Program:	/corina/corina34_cracker 3.40 0067  02.08.2006

@<TRIPOS>MOLECULE
ASD08178400
  87   90    0    0    0
SMALL
NO_CHARGES


@<TRIPOS>ATOM
   1 N1            -0.0168     1.3902     0.0097 N.am    
   2 C2             0.2045     0.0137    -0.0163 C.ar    
   3 C3            -0.8677    -0.8698     0.0910 C.ar    
   4 N4             1.4345    -0.4600    -0.1486 N.ar    
   5 N5             1.6806    -1.7193    -0.1774 N.ar    
   6 C6             0.7277    -2.6253    -0.0776 C.ar    
   7 C7            -0.5947    -2.2288     0.0593 C.ar    
   8 C8             1.0745    -4.0913    -0.1181 C.3     
   9 C9             1.8665    -4.3929    -1.3920 C.3     
  10 C10            2.2186    -5.8813    -1.4332 C.3     
  11 C11            3.0106    -6.1829    -2.7070 C.3     
  12 C12            3.3575    -7.6489    -2.7476 C.2     
  13 N13            2.6409    -8.5891    -3.2768 N.2     
  14 N14            3.1064    -9.7606    -3.2083 N.2     
  15 C15            4.2527    -9.9205    -2.6187 C.2     
  16 S16            4.8159    -8.3916    -2.0895 S.3     
  17 N17            4.9156   -11.1314    -2.4500 N.am    
  18 C18            4.3685   -12.2702    -2.9192 C.2     
  19 C19            5.0868   -13.5824    -2.7363 C.3     
  20 O20            3.2980   -12.2391    -3.4885 O.2     
  21 C21            4.2692   -14.6918    -3.3460 C.ar    
  22 C22            4.4550   -15.0394    -4.6710 C.ar    
  23 C23            3.7050   -16.0570    -5.2303 C.ar    
  24 C24            2.7696   -16.7275    -4.4645 C.ar    
  25 C25            2.5846   -16.3805    -3.1392 C.ar    
  26 C26            3.3376   -15.3658    -2.5788 C.ar    
  27 C27            1.0285     2.2410     0.0105 C.2     
  28 C28            0.7911     3.7265    -0.0791 C.3     
  29 O29            2.1601     1.8111     0.0834 O.2     
  30 C30            2.1136     4.4487    -0.0591 C.ar    
  31 C31            3.0511     4.2000    -1.0439 C.ar    
  32 C32            4.2643     4.8621    -1.0269 C.ar    
  33 C33            4.5402     5.7746    -0.0231 C.ar    
  34 C34            3.6002     6.0229     0.9630 C.ar    
  35 C35            2.3860     5.3637     0.9410 C.ar    
  36 C36            3.8993     7.0156     2.0567 C.3     
  37 C37            6.1670     6.5664     2.8267 C.2     
  38 N38            4.8396     6.4225     3.0108 N.am    
  39 C39            4.3371     5.6730     4.1649 C.3     
  40 F40            5.7259     6.4220    -0.0052 F       
  41 O41            7.0312     6.0214     3.7035 O.3     
  42 O42            6.5837     7.1881     1.8695 O.2     
  43 C43            8.4461     6.2164     3.4424 C.3     
  44 C44            8.7611     7.7136     3.4314 C.3     
  45 C45            9.2660     5.5308     4.5372 C.3     
  46 C46            8.8022     5.6103     2.0834 C.3     
  47 C47            0.0542     4.0476    -1.3809 C.3     
  48 H48           -0.9232     1.7355     0.0231 H       
  49 H49           -1.8796    -0.5073     0.1958 H       
  50 H50           -1.3877    -2.9573     0.1426 H       
  51 H51            1.6774    -4.3463     0.7534 H       
  52 H52            0.1583    -4.6817    -0.1116 H       
  53 H53            1.2637    -4.1379    -2.2636 H       
  54 H54            2.7827    -3.8025    -1.3986 H       
  55 H55            2.8215    -6.1363    -0.5616 H       
  56 H56            1.3024    -6.4717    -1.4266 H       
  57 H57            2.4078    -5.9279    -3.5786 H       
  58 H58            3.9268    -5.5925    -2.7136 H       
  59 H59            5.7717   -11.1563    -1.9946 H       
  60 H60            6.0591   -13.5357    -3.2269 H       
  61 H61            5.2254   -13.7756    -1.6726 H       
  62 H62            5.1857   -14.5156    -5.2694 H       
  63 H63            3.8496   -16.3281    -6.2657 H       
  64 H64            2.1832   -17.5221    -4.9016 H       
  65 H65            1.8536   -16.9041    -2.5410 H       
  66 H66            3.1930   -15.0947    -1.5434 H       
  67 H67            0.1877     4.0498     0.7692 H       
  68 H68            2.8357     3.4879    -1.8268 H       
  69 H69            4.9968     4.6674    -1.7963 H       
  70 H70            1.6527     5.5572     1.7100 H       
  71 H71            4.3399     7.9130     1.6224 H       
  72 H72            2.9753     7.2775     2.5723 H       
  73 H73            4.2294     4.6220     3.8967 H       
  74 H74            5.0399     5.7665     4.9928 H       
  75 H75            3.3682     6.0728     4.4639 H       
  76 H76            8.5074     8.1453     4.3996 H       
  77 H77            9.8232     7.8600     3.2354 H       
  78 H78            8.1769     8.2020     2.6515 H       
  79 H79            9.0416     4.4641     4.5450 H       
  80 H80           10.3282     5.6772     4.3411 H       
  81 H81            9.0123     5.9625     5.5053 H       
  82 H82            8.2181     6.0988     1.3035 H       
  83 H83            9.8644     5.7568     1.8874 H       
  84 H84            8.5778     4.5437     2.0912 H       
  85 H85           -0.9024     3.5252    -1.3953 H       
  86 H86           -0.1175     5.1220    -1.4457 H       
  87 H87            0.6575     3.7243    -2.2292 H       
@<TRIPOS>BOND
   1    1    2 1
   2    1   27 am
   3    1   48 1
   4    2    3 ar
   5    2    4 ar
   6    3    7 ar
   7    3   49 1
   8    4    5 ar
   9    5    6 ar
  10    6    7 ar
  11    6    8 1
  12    7   50 1
  13    8    9 1
  14    8   51 1
  15    8   52 1
  16    9   10 1
  17    9   53 1
  18    9   54 1
  19   10   11 1
  20   10   55 1
  21   10   56 1
  22   11   12 1
  23   11   57 1
  24   11   58 1
  25   12   13 2
  26   12   16 1
  27   13   14 1
  28   14   15 2
  29   15   16 1
  30   15   17 1
  31   17   18 am
  32   17   59 1
  33   18   19 1
  34   18   20 2
  35   19   21 1
  36   19   60 1
  37   19   61 1
  38   21   22 ar
  39   21   26 ar
  40   22   23 ar
  41   22   62 1
  42   23   24 ar
  43   23   63 1
  44   24   25 ar
  45   24   64 1
  46   25   26 ar
  47   25   65 1
  48   26   66 1
  49   27   28 1
  50   27   29 2
  51   28   30 1
  52   28   47 1
  53   28   67 1
  54   30   31 ar
  55   30   35 ar
  56   31   32 ar
  57   31   68 1
  58   32   33 ar
  59   32   69 1
  60   33   34 ar
  61   33   40 1
  62   34   35 ar
  63   34   36 1
  64   35   70 1
  65   36   38 1
  66   36   71 1
  67   36   72 1
  68   37   41 1
  69   37   42 2
  70   37   38 am
  71   38   39 1
  72   39   73 1
  73   39   74 1
  74   39   75 1
  75   41   43 1
  76   43   44 1
  77   43   45 1
  78   43   46 1
  79   44   76 1
  80   44   77 1
  81   44   78 1
  82   45   79 1
  83   45   80 1
  84   45   81 1
  85   46   82 1
  86   46   83 1
  87   46   84 1
  88   47   85 1
  89   47   86 1
  90   47   87 1

#	End of record

