#	Name: ASD01914106
#	Creating user name:	WinNT
#	Creation time:	15. 06. 2019 20:02

#	Modifying user name:	WinNT
#	Modification time:	15. 06. 2019 20:02

#	Program:	/corina/corina34_cracker 3.40 0067  02.08.2006

@<TRIPOS>MOLECULE
ASD01914106
  53   55    0    0    0
SMALL
NO_CHARGES


@<TRIPOS>ATOM
   1 C1            -0.0167     1.3783     0.0096 C.ar    
   2 C2             0.0021    -0.0041     0.0020 C.ar    
   3 C3             2.3846     0.0977    -0.0203 C.ar    
   4 C4             2.2847     1.4811    -0.0118 C.ar    
   5 O5             3.6025    -0.5054    -0.0347 O.3     
   6 C6             1.2201    -0.6638    -0.0132 C.ar    
   7 N7             1.1055     2.0705     0.0026 N.ar    
   8 C8            -1.2874    -0.7840     0.0107 C.3     
   9 C9             4.7489     0.3478    -0.0406 C.3     
  10 C10            6.0000    -0.4921    -0.0567 C.ar    
  11 N11            7.1789     0.1000    -0.0643 N.ar    
  12 C12            8.3023    -0.5872    -0.0784 C.ar    
  13 C13            8.2807    -1.9822    -0.0862 C.ar    
  14 C14            7.0443    -2.6395    -0.0784 C.ar    
  15 C15            5.8936    -1.8716    -0.0575 C.ar    
  16 C16            9.5419    -2.7534    -0.1030 C.2     
  17 N17           10.7257    -2.1091    -0.1108 N.am    
  18 C18           11.9754    -2.8734    -0.1274 C.3     
  19 O19            9.5112    -3.9685    -0.1097 O.2     
  20 C20           13.0866    -2.0205    -0.7430 C.3     
  21 C21           12.3589    -3.2549     1.3038 C.3     
  22 C22           14.3918    -2.8187    -0.7603 C.3     
  23 C23           15.5029    -1.9658    -1.3759 C.3     
  24 C24           15.1194    -1.5842    -2.8070 C.3     
  25 C25           13.8142    -0.7861    -2.7897 C.3     
  26 C26           12.7031    -1.6389    -2.1741 C.3     
  27 H27           -0.9633     1.8983     0.0169 H       
  28 H28            3.1823     2.0818    -0.0168 H       
  29 H29            1.2648    -1.7429    -0.0191 H       
  30 H30           -1.6085    -0.9666    -1.0148 H       
  31 H31           -1.1325    -1.7363     0.5179 H       
  32 H32           -2.0537    -0.2133     0.5353 H       
  33 H33            4.7254     0.9817    -0.9270 H       
  34 H34            4.7418     0.9720     0.8528 H       
  35 H35            9.2484    -0.0663    -0.0842 H       
  36 H36            6.9904    -3.7181    -0.0842 H       
  37 H37            4.9224    -2.3439    -0.0510 H       
  38 H38           10.7501    -1.1395    -0.1054 H       
  39 H39           11.8405    -3.7777    -0.7208 H       
  40 H40           13.2215    -1.1162    -0.1496 H       
  41 H41           11.5673    -3.8625     1.7423 H       
  42 H42           13.2888    -3.8235     1.2914 H       
  43 H43           12.4939    -2.3506     1.8972 H       
  44 H44           14.6650    -3.0905     0.2593 H       
  45 H45           14.2568    -3.7230    -1.3537 H       
  46 H46           15.6379    -1.0615    -0.7825 H       
  47 H47           16.4328    -2.5344    -1.3882 H       
  48 H48           15.9110    -0.9767    -3.2456 H       
  49 H49           14.9845    -2.4885    -3.4004 H       
  50 H50           13.9492     0.1182    -2.1963 H       
  51 H51           13.5410    -0.5143    -3.8093 H       
  52 H52           12.5681    -2.5432    -2.7675 H       
  53 H53           11.7732    -1.0703    -2.1618 H       
@<TRIPOS>BOND
   1    1    2 ar
   2    1    7 ar
   3    1   27 1
   4    2    6 ar
   5    2    8 1
   6    3    4 ar
   7    3    5 1
   8    3    6 ar
   9    4    7 ar
  10    4   28 1
  11    5    9 1
  12    6   29 1
  13    8   30 1
  14    8   31 1
  15    8   32 1
  16    9   10 1
  17    9   33 1
  18    9   34 1
  19   10   11 ar
  20   10   15 ar
  21   11   12 ar
  22   12   13 ar
  23   12   35 1
  24   13   14 ar
  25   13   16 1
  26   14   15 ar
  27   14   36 1
  28   15   37 1
  29   16   17 am
  30   16   19 2
  31   17   18 1
  32   17   38 1
  33   18   20 1
  34   18   21 1
  35   18   39 1
  36   20   22 1
  37   20   26 1
  38   20   40 1
  39   21   41 1
  40   21   42 1
  41   21   43 1
  42   22   23 1
  43   22   44 1
  44   22   45 1
  45   23   24 1
  46   23   46 1
  47   23   47 1
  48   24   25 1
  49   24   48 1
  50   24   49 1
  51   25   26 1
  52   25   50 1
  53   25   51 1
  54   26   52 1
  55   26   53 1

#	End of record

