#	Name: ASD03540522
#	Creating user name:	WinNT
#	Creation time:	15. 06. 2019 20:43

#	Modifying user name:	WinNT
#	Modification time:	15. 06. 2019 20:43

#	Program:	/corina/corina34_cracker 3.40 0067  02.08.2006

@<TRIPOS>MOLECULE
ASD03540522
  60   63    0    0    0
SMALL
NO_CHARGES


@<TRIPOS>ATOM
   1 C1             2.7489    -8.6906    -2.5549 C.2     
   2 C2             2.0585    -7.5581    -1.9044 C.ar    
   3 C3             0.6729    -7.5855    -1.7347 C.ar    
   4 C4             0.0346    -6.5248    -1.1261 C.ar    
   5 C5             0.7643    -5.4353    -0.6846 C.ar    
   6 C6             2.1377    -5.4014    -0.8499 C.ar    
   7 C7             2.7894    -6.4581    -1.4513 C.ar    
   8 O8             2.1110    -9.6485    -2.9435 O.2     
   9 O9             4.0852    -8.6586    -2.7220 O.3     
  10 C10            0.0601    -4.2800    -0.0210 C.3     
  11 C11           -2.2988    -4.3340     0.5374 C.2     
  12 N12           -3.3758    -4.7476     1.2279 N.am    
  13 C13           -3.2477    -5.6772     2.2418 C.ar    
  14 C14           -1.9686    -6.1829     2.5380 C.ar    
  15 C15           -0.8214    -5.6963     1.7502 C.2     
  16 N16           -1.0579    -4.7846     0.7800 N.am    
  17 C17           -4.3396    -6.1294     2.9793 C.ar    
  18 C18           -1.8354    -7.1185     3.5581 C.ar    
  19 C19           -2.9820    -7.5156     4.2455 C.ar    
  20 N20           -4.1736    -7.0142     3.9356 N.ar    
  21 O21            0.3037    -6.1020     1.9669 O.2     
  22 O22           -2.4568    -3.5186    -0.3502 O.2     
  23 C23            1.0427    -3.5367     0.8861 C.3     
  24 C24           -2.8707    -8.5094     5.3355 C.2     
  25 N25           -3.9724    -8.9001     6.0063 N.am    
  26 O26           -1.7856    -8.9736     5.6262 O.2     
  27 C27           -3.8621    -9.8844     7.0858 C.3     
  28 C28           -5.2272   -10.1464     7.6680 C.ar    
  29 C29           -6.0194   -11.1516     7.1447 C.ar    
  30 C30           -7.2711   -11.3937     7.6767 C.ar    
  31 C31           -7.7331   -10.6274     8.7368 C.ar    
  32 C32           -6.9363    -9.6195     9.2601 C.ar    
  33 C33           -5.6830    -9.3850     8.7283 C.ar    
  34 O34           -8.9642   -10.8634     9.2616 O.3     
  35 C35           -9.3744   -10.0356    10.3518 C.3     
  36 C36            4.6963    -9.8059    -3.3689 C.3     
  37 H37            0.1020    -8.4350    -2.0795 H       
  38 H38           -1.0371    -6.5447    -0.9942 H       
  39 H39            2.7012    -4.5476    -0.5036 H       
  40 H40            3.8619    -6.4325    -1.5754 H       
  41 H41           -0.3176    -3.5984    -0.7832 H       
  42 H42           -4.2512    -4.3896     1.0123 H       
  43 H43           -5.3276    -5.7501     2.7638 H       
  44 H44           -0.8685    -7.5276     3.8114 H       
  45 H45            1.4204    -4.2182     1.6483 H       
  46 H46            1.8746    -3.1612     0.2901 H       
  47 H47            0.5333    -2.7011     1.3661 H       
  48 H48           -4.8383    -8.5297     5.7743 H       
  49 H49           -3.4515   -10.8133     6.6900 H       
  50 H50           -3.2034    -9.4982     7.8636 H       
  51 H51           -5.6594   -11.7476     6.3191 H       
  52 H52           -7.8896   -12.1787     7.2673 H       
  53 H53           -7.2937    -9.0215    10.0854 H       
  54 H54           -5.0604    -8.6036     9.1384 H       
  55 H55           -8.6756   -10.1529    11.1800 H       
  56 H56           -9.3871    -8.9936    10.0320 H       
  57 H57          -10.3732   -10.3287    10.6749 H       
  58 H58            4.4959   -10.7029    -2.7829 H       
  59 H59            4.2789    -9.9243    -4.3688 H       
  60 H60            5.7730    -9.6519    -3.4406 H       
@<TRIPOS>BOND
   1    1    2 1
   2    1    8 2
   3    1    9 1
   4    2    3 ar
   5    2    7 ar
   6    3    4 ar
   7    3   37 1
   8    4    5 ar
   9    4   38 1
  10    5    6 ar
  11    5   10 1
  12    6    7 ar
  13    6   39 1
  14    7   40 1
  15    9   36 1
  16   10   16 1
  17   10   23 1
  18   10   41 1
  19   11   12 am
  20   11   16 am
  21   11   22 2
  22   12   13 1
  23   12   42 1
  24   13   14 ar
  25   13   17 ar
  26   14   15 1
  27   14   18 ar
  28   15   16 am
  29   15   21 2
  30   17   20 ar
  31   17   43 1
  32   18   19 ar
  33   18   44 1
  34   19   20 ar
  35   19   24 1
  36   23   45 1
  37   23   46 1
  38   23   47 1
  39   24   25 am
  40   24   26 2
  41   25   27 1
  42   25   48 1
  43   27   28 1
  44   27   49 1
  45   27   50 1
  46   28   29 ar
  47   28   33 ar
  48   29   30 ar
  49   29   51 1
  50   30   31 ar
  51   30   52 1
  52   31   32 ar
  53   31   34 1
  54   32   33 ar
  55   32   53 1
  56   33   54 1
  57   34   35 1
  58   35   55 1
  59   35   56 1
  60   35   57 1
  61   36   58 1
  62   36   59 1
  63   36   60 1

#	End of record

