#	Name: ASD01470007
#	Creating user name:	WinNT
#	Creation time:	15. 06. 2019 19:21

#	Modifying user name:	WinNT
#	Modification time:	15. 06. 2019 19:21

#	Program:	/corina/corina34_cracker 3.40 0067  02.08.2006

@<TRIPOS>MOLECULE
ASD01470007
 138  139    0    0    0
SMALL
NO_CHARGES


@<TRIPOS>ATOM
   1 C1            -5.6984     3.2663     2.0400 C.ar    
   2 C2            -5.7255     1.8909     2.1758 C.ar    
   3 C3            -4.5427     1.1834     2.2817 C.ar    
   4 C4            -3.3327     1.8513     2.2513 C.ar    
   5 C5            -3.3056     3.2266     2.1145 C.ar    
   6 C6            -4.4885     3.9342     2.0101 C.ar    
   7 C7            -7.0445     1.1629     2.2090 C.3     
   8 C8            -7.4483     0.7739     0.7854 C.3     
   9 N9            -7.6940     1.9855    -0.0007 N.am    
  10 C10           -7.5665     1.9558    -1.3421 C.2     
  11 C11           -7.8192     3.2021    -2.1508 C.3     
  12 O12           -7.2483     0.9261    -1.8984 O.2     
  13 N13           -7.6165     2.9114    -3.5722 N.am    
  14 C14           -9.2578     3.6725    -1.9266 C.3     
  15 C15          -10.2140     2.6215    -2.4286 C.2     
  16 N16          -11.5415     2.8537    -2.4090 N.am    
  17 O17           -9.7890     1.5668    -2.8503 O.2     
  18 C18           -7.3400     3.9118    -4.4320 C.2     
  19 O19           -7.3477     5.0618    -4.0468 O.2     
  20 C20           -7.0214     3.6015    -5.8718 C.3     
  21 C21           -6.7480     4.9045    -6.6259 C.3     
  22 C22           -6.4244     4.5894    -8.0877 C.3     
  23 C23           -6.1510     5.8923    -8.8418 C.3     
  24 C24           -3.7634     9.8439   -17.7053 C.3     
  25 C25           -3.4398     9.5289   -19.1672 C.3     
  26 C26           -2.8478    10.5215   -21.3611 C.2     
  27 O27           -2.8401     9.3715   -21.7462 O.2     
  28 C28           -2.5904    12.4161   -24.4767 C.2     
  29 N29           -2.3856    12.3685   -25.8080 N.am    
  30 O30           -3.0393    13.4213   -23.9678 O.2     
  31 C31           -2.5947    13.5667   -26.6246 C.3     
  32 C32           -1.3516    14.4558   -26.5533 C.3     
  33 C33           -2.8420    13.1626   -28.0552 C.2     
  34 C34           -1.5855    15.7261   -27.3734 C.3     
  35 C35           -2.6821    16.5644   -26.7134 C.3     
  36 C36           -0.2905    16.5385   -27.4358 C.3     
  37 O37           -2.5315    12.0533   -28.4344 O.2     
  38 N38           -3.4082    14.0342   -28.9133 N.am    
  39 C39           -3.1664    10.8318   -19.9212 C.3     
  40 C40           -3.8239    14.4557   -33.4489 C.ar    
  41 C41           -4.1535    14.0506   -34.7278 C.ar    
  42 C42           -5.4095    13.5201   -34.9841 C.ar    
  43 C43           -6.3315    13.3978   -33.9547 C.ar    
  44 C44           -5.9969    13.8040   -32.6775 C.ar    
  45 C45           -4.7447    14.3329   -32.4247 C.ar    
  46 C46           -3.7603    13.6037   -30.2687 C.3     
  47 C47           -4.3825    14.7756   -31.0305 C.3     
  48 N48           -2.5713    11.5220   -22.2208 N.am    
  49 C49           -2.2615    11.2203   -23.6205 C.3     
  50 C50           -0.7733    10.8912   -23.7540 C.3     
  51 O51            0.0027    12.0120   -23.3252 O.3     
  52 C52           -0.4395     9.6772   -22.8847 C.3     
  53 O53           -5.7363    13.1212   -36.2415 O.3     
  54 C54           -7.0469    12.5845   -36.4318 C.3     
  55 C55           -8.7031    -0.0596     0.8292 C.2     
  56 O56           -9.7003     0.3195     0.2619 O.2     
  57 O57           -8.7129    -1.2231     1.4983 O.3     
  58 C58           -5.8275     5.5773   -10.3036 C.3     
  59 C59           -5.5541     6.8802   -11.0576 C.3     
  60 C60           -5.2306     6.5652   -12.5195 C.3     
  61 C61           -4.9572     7.8681   -13.2735 C.3     
  62 C62           -4.6337     7.5531   -14.7354 C.3     
  63 C63           -4.3603     8.8560   -15.4894 C.3     
  64 C64           -4.0368     8.5410   -16.9513 C.3     
  65 H65           -6.6224     3.8186     1.9528 H       
  66 H66           -4.5638     0.1089     2.3885 H       
  67 H67           -2.4086     1.2986     2.3347 H       
  68 H68           -2.3603     3.7484     2.0911 H       
  69 H69           -4.4673     5.0087     1.9029 H       
  70 H70           -6.9481     0.2638     2.8178 H       
  71 H71           -7.8073     1.8123     2.6384 H       
  72 H72           -6.6456     0.1983     0.3245 H       
  73 H73           -7.9485     2.8090     0.4442 H       
  74 H74           -7.1281     3.9847    -1.8378 H       
  75 H75           -7.6812     1.9988    -3.8947 H       
  76 H76           -9.4246     3.8368    -0.8620 H       
  77 H77           -9.4241     4.6036    -2.4683 H       
  78 H78          -11.8814     3.6973    -2.0718 H       
  79 H79          -12.1570     2.1772    -2.7322 H       
  80 H80           -6.1397     2.9624    -5.9192 H       
  81 H81           -7.8673     3.0880    -6.3287 H       
  82 H82           -7.6297     5.5436    -6.5785 H       
  83 H83           -5.9020     5.4180    -6.1690 H       
  84 H84           -5.5427     3.9503    -8.1351 H       
  85 H85           -7.2704     4.0759    -8.5446 H       
  86 H86           -7.0327     6.5315    -8.7943 H       
  87 H87           -5.3051     6.4059    -8.3849 H       
  88 H88           -2.9174    10.3574   -17.2485 H       
  89 H89           -4.6451    10.4830   -17.6579 H       
  90 H90           -2.5581     8.8898   -19.2146 H       
  91 H91           -4.2858     9.0154   -19.6240 H       
  92 H92           -2.0997    11.5409   -26.2254 H       
  93 H93           -3.4570    14.1169   -26.2482 H       
  94 H94           -1.1560    14.7243   -25.5152 H       
  95 H95           -0.4950    13.9156   -26.9565 H       
  96 H96           -1.8934    15.4551   -28.3832 H       
  97 H97           -2.7762    17.5161   -27.2364 H       
  98 H98           -3.6293    16.0275   -26.7629 H       
  99 H99           -2.4220    16.7470   -25.6708 H       
 100 H100           0.4908    15.9412   -27.9060 H       
 101 H101          -0.4571    17.4435   -28.0200 H       
 102 H102           0.0175    16.8094   -26.4259 H       
 103 H103          -3.5826    14.9464   -28.6335 H       
 104 H104          -4.0481    11.4709   -19.8738 H       
 105 H105          -2.3205    11.3453   -19.4644 H       
 106 H106          -2.8447    14.8646   -33.2479 H       
 107 H107          -3.4341    14.1471   -35.5275 H       
 108 H108          -7.3101    12.9855   -34.1518 H       
 109 H109          -6.7145    13.7094   -31.8759 H       
 110 H110          -2.8626    13.2683   -30.7881 H       
 111 H111          -4.4767    12.7839   -30.2150 H       
 112 H112          -3.6661    15.5954   -31.0842 H       
 113 H113          -5.2802    15.1110   -30.5111 H       
 114 H114          -2.5775    12.4417   -21.9127 H       
 115 H115          -2.8535    10.3655   -23.9476 H       
 116 H116          -0.5429    10.6668   -24.7955 H       
 117 H117          -0.1515    12.2684   -22.4057 H       
 118 H118          -1.0314     8.8224   -23.2118 H       
 119 H119           0.6207     9.4428   -22.9799 H       
 120 H120          -0.6700     9.9017   -21.8433 H       
 121 H121          -7.1736    11.7034   -35.8029 H       
 122 H122          -7.7897    13.3346   -36.1602 H       
 123 H123          -7.1772    12.3062   -37.4776 H       
 124 H124          -9.5408    -1.7227     1.4981 H       
 125 H125          -4.9458     4.9382   -10.3510 H       
 126 H126          -6.6735     5.0638   -10.7604 H       
 127 H127          -6.4358     7.5193   -11.0102 H       
 128 H128          -4.7081     7.3938   -10.6008 H       
 129 H129          -4.3489     5.9261   -12.5669 H       
 130 H130          -6.0766     6.0517   -12.9763 H       
 131 H131          -5.8389     8.5072   -13.2261 H       
 132 H132          -4.1112     8.3817   -12.8167 H       
 133 H133          -3.7520     6.9140   -14.7828 H       
 134 H134          -5.4797     7.0396   -15.1922 H       
 135 H135          -5.2420     9.4951   -15.4420 H       
 136 H136          -3.5143     9.3695   -15.0326 H       
 137 H137          -4.8827     8.0275   -17.4081 H       
 138 H138          -3.1551     7.9019   -16.9987 H       
@<TRIPOS>BOND
   1    1    2 ar
   2    1    6 ar
   3    1   65 1
   4    2    3 ar
   5    2    7 1
   6    3    4 ar
   7    3   66 1
   8    4    5 ar
   9    4   67 1
  10    5    6 ar
  11    5   68 1
  12    6   69 1
  13    7    8 1
  14    7   70 1
  15    7   71 1
  16    8    9 1
  17    8   55 1
  18    8   72 1
  19    9   10 am
  20    9   73 1
  21   10   11 1
  22   10   12 2
  23   11   13 1
  24   11   14 1
  25   11   74 1
  26   13   18 am
  27   13   75 1
  28   14   15 1
  29   14   76 1
  30   14   77 1
  31   15   16 am
  32   15   17 2
  33   16   78 1
  34   16   79 1
  35   18   19 2
  36   18   20 1
  37   20   21 1
  38   20   80 1
  39   20   81 1
  40   21   22 1
  41   21   82 1
  42   21   83 1
  43   22   23 1
  44   22   84 1
  45   22   85 1
  46   23   58 1
  47   23   86 1
  48   23   87 1
  49   24   25 1
  50   24   64 1
  51   24   88 1
  52   24   89 1
  53   25   39 1
  54   25   90 1
  55   25   91 1
  56   26   27 2
  57   26   48 am
  58   26   39 1
  59   28   29 am
  60   28   30 2
  61   28   49 1
  62   29   31 1
  63   29   92 1
  64   31   32 1
  65   31   33 1
  66   31   93 1
  67   32   34 1
  68   32   94 1
  69   32   95 1
  70   33   37 2
  71   33   38 am
  72   34   35 1
  73   34   36 1
  74   34   96 1
  75   35   97 1
  76   35   98 1
  77   35   99 1
  78   36  100 1
  79   36  101 1
  80   36  102 1
  81   38   46 1
  82   38  103 1
  83   39  104 1
  84   39  105 1
  85   40   41 ar
  86   40   45 ar
  87   40  106 1
  88   41   42 ar
  89   41  107 1
  90   42   43 ar
  91   42   53 1
  92   43   44 ar
  93   43  108 1
  94   44   45 ar
  95   44  109 1
  96   45   47 1
  97   46   47 1
  98   46  110 1
  99   46  111 1
 100   47  112 1
 101   47  113 1
 102   48   49 1
 103   48  114 1
 104   49   50 1
 105   49  115 1
 106   50   51 1
 107   50   52 1
 108   50  116 1
 109   51  117 1
 110   52  118 1
 111   52  119 1
 112   52  120 1
 113   53   54 1
 114   54  121 1
 115   54  122 1
 116   54  123 1
 117   55   56 2
 118   55   57 1
 119   57  124 1
 120   58   59 1
 121   58  125 1
 122   58  126 1
 123   59   60 1
 124   59  127 1
 125   59  128 1
 126   60   61 1
 127   60  129 1
 128   60  130 1
 129   61   62 1
 130   61  131 1
 131   61  132 1
 132   62   63 1
 133   62  133 1
 134   62  134 1
 135   63   64 1
 136   63  135 1
 137   63  136 1
 138   64  137 1
 139   64  138 1

#	End of record

