#	Name: ASD00960251
#	Creating user name:	WinNT
#	Creation time:	15. 06. 2019 18:53

#	Modifying user name:	WinNT
#	Modification time:	15. 06. 2019 18:53

#	Program:	/corina/corina34_cracker 3.40 0067  02.08.2006

@<TRIPOS>MOLECULE
ASD00960251
  39   42    0    0    0
SMALL
NO_CHARGES


@<TRIPOS>ATOM
   1 C1            -0.0167     1.3821     0.0096 C.2     
   2 C2             0.0021    -0.0041     0.0020 C.2     
   3 N3             1.2815     1.8103    -0.0005 N.pl3   
   4 C4             2.1003     0.7141     0.0003 C.2     
   5 C5             1.3457    -0.3989    -0.0055 C.2     
   6 N6             1.7991     3.1142     0.0020 N.2     
   7 C7             3.0796     3.2739    -0.2218 C.2     
   8 N8             3.9045     2.1990    -0.5226 N.pl3   
   9 C9             3.6052     0.8609     0.0185 C.3     
  10 N10            4.1052     0.7517     1.3955 N.3     
  11 C11            3.6591     4.6291    -0.1531 C.2     
  12 N12            2.9992     5.7865     0.1266 N.pl3   
  13 N13            3.8721     6.7356     0.0853 N.2     
  14 N14            5.0233     6.2376    -0.2009 N.2     
  15 N15            4.9235     4.9614    -0.3450 N.2     
  16 C16           -1.2080     2.2314     0.0202 C.2     
  17 O17           -2.3148     1.7267     0.0233 O.2     
  18 O18           -1.0791     3.5743     0.0263 O.3     
  19 C19           -2.2844     4.3418     0.0365 C.3     
  20 C20           -1.9451     5.8101     0.0422 C.ar    
  21 C21           -1.7956     6.4896    -1.1523 C.ar    
  22 C22           -1.4843     7.8364    -1.1471 C.ar    
  23 C23           -1.3228     8.5038     0.0526 C.ar    
  24 C24           -1.4731     7.8245     1.2471 C.ar    
  25 C25           -1.7887     6.4787     1.2419 C.ar    
  26 H26           -0.8582    -0.6570     0.0022 H       
  27 H27            1.7105    -1.4154    -0.0140 H       
  28 H28            4.6801     2.3288    -1.0905 H       
  29 H29            4.0621     0.0944    -0.6075 H       
  30 H30            5.1036     0.8935     1.4299 H       
  31 H31            3.6271     1.3972     2.0060 H       
  32 H32            2.0532     5.8798     0.3199 H       
  33 H33           -2.8715     4.1080    -0.8517 H       
  34 H34           -2.8623     4.0990     0.9283 H       
  35 H35           -1.9218     5.9681    -2.0897 H       
  36 H36           -1.3668     8.3671    -2.0804 H       
  37 H37           -1.0788     9.5559     0.0567 H       
  38 H38           -1.3466     8.3459     2.1845 H       
  39 H39           -1.9099     5.9488     2.1752 H       
@<TRIPOS>BOND
   1    1    2 2
   2    1    3 1
   3    1   16 1
   4    2    5 1
   5    2   26 1
   6    3    4 1
   7    3    6 1
   8    4    5 2
   9    4    9 1
  10    5   27 1
  11    6    7 2
  12    7    8 1
  13    7   11 1
  14    8    9 1
  15    8   28 1
  16    9   10 1
  17    9   29 1
  18   10   30 1
  19   10   31 1
  20   11   12 1
  21   11   15 2
  22   12   13 1
  23   12   32 1
  24   13   14 2
  25   14   15 1
  26   16   17 2
  27   16   18 1
  28   18   19 1
  29   19   20 1
  30   19   33 1
  31   19   34 1
  32   20   21 ar
  33   20   25 ar
  34   21   22 ar
  35   21   35 1
  36   22   23 ar
  37   22   36 1
  38   23   24 ar
  39   23   37 1
  40   24   25 ar
  41   24   38 1
  42   25   39 1

#	End of record

