#	Name: ASD08150527
#	Creating user name:	WinNT
#	Creation time:	15. 06. 2019 21:16

#	Modifying user name:	WinNT
#	Modification time:	15. 06. 2019 21:16

#	Program:	/corina/corina34_cracker 3.40 0067  02.08.2006

@<TRIPOS>MOLECULE
ASD08150527
  34   36    0    0    0
SMALL
NO_CHARGES


@<TRIPOS>ATOM
   1 C1            -0.3179     1.1801     0.0159 C.ar    
   2 C2            -0.1149    -0.1906     0.0138 C.ar    
   3 C3             1.1939    -0.7193     0.0652 C.ar    
   4 C4             2.2783     0.1099     0.1176 C.ar    
   5 C5             2.0974     1.5021     0.1207 C.ar    
   6 C6             3.1987     2.3748     0.1747 C.ar    
   7 C7             2.9940     3.7201     0.1769 C.ar    
   8 C8             1.7059     4.2510     0.1263 C.ar    
   9 C9             0.6154     3.4392     0.0737 C.ar    
  10 C10            0.7859     2.0425     0.0693 C.ar    
  11 C11           -1.2724    -1.1030    -0.0417 C.2     
  12 O12           -1.0976    -2.3005    -0.1610 O.2     
  13 N13           -2.5240    -0.6096     0.0396 N.am    
  14 C14           -3.6231    -1.4634    -0.1020 C.ar    
  15 C15           -4.7815    -1.0107    -0.7230 C.ar    
  16 C16           -5.8651    -1.8571    -0.8610 C.ar    
  17 C17           -5.7977    -3.1526    -0.3815 C.ar    
  18 C18           -4.6470    -3.6052     0.2369 C.ar    
  19 C19           -3.5575    -2.7665     0.3723 C.ar    
  20 Cl20          -4.8669     0.6157    -1.3239 Cl      
  21 N21            1.3805    -2.0979     0.0628 N.pl3   
  22 H22           -1.3197     1.5814    -0.0280 H       
  23 H23            3.2745    -0.3053     0.1569 H       
  24 H24            4.2028     1.9790     0.2146 H       
  25 H25            3.8426     4.3869     0.2188 H       
  26 H26            1.5717     5.3226     0.1292 H       
  27 H27           -0.3765     3.8648     0.0356 H       
  28 H28           -2.6626     0.3376     0.1964 H       
  29 H29           -6.7655    -1.5064    -1.3433 H       
  30 H30           -6.6460    -3.8121    -0.4902 H       
  31 H31           -4.5981    -4.6173     0.6108 H       
  32 H32           -2.6573    -3.1228     0.8510 H       
  33 H33            0.6148    -2.6911     0.1144 H       
  34 H34            2.2764    -2.4660     0.0096 H       
@<TRIPOS>BOND
   1    1    2 ar
   2    1   10 ar
   3    1   22 1
   4    2    3 ar
   5    2   11 1
   6    3    4 ar
   7    3   21 1
   8    4    5 ar
   9    4   23 1
  10    5    6 ar
  11    5   10 ar
  12    6    7 ar
  13    6   24 1
  14    7    8 ar
  15    7   25 1
  16    8    9 ar
  17    8   26 1
  18    9   10 ar
  19    9   27 1
  20   11   12 2
  21   11   13 am
  22   13   14 1
  23   13   28 1
  24   14   15 ar
  25   14   19 ar
  26   15   16 ar
  27   15   20 1
  28   16   17 ar
  29   16   29 1
  30   17   18 ar
  31   17   30 1
  32   18   19 ar
  33   18   31 1
  34   19   32 1
  35   21   33 1
  36   21   34 1

#	End of record

