#	Name: ASD01911226
#	Creating user name:	WinNT
#	Creation time:	15. 06. 2019 19:57

#	Modifying user name:	WinNT
#	Modification time:	15. 06. 2019 19:57

#	Program:	/corina/corina34_cracker 3.40 0067  02.08.2006

@<TRIPOS>MOLECULE
ASD01911226
  43   46    0    0    0
SMALL
NO_CHARGES


@<TRIPOS>ATOM
   1 C1            -0.0187     1.5277     0.0104 C.3     
   2 C2             0.0021    -0.0041     0.0020 C.3     
   3 N3             0.8027    -0.4599    -1.1425 N.am    
   4 C4             2.1696     0.0559    -1.2987 C.3     
   5 C5             2.1245     1.5870    -1.2757 C.3     
   6 C6             1.4185     2.0534    -0.0005 C.3     
   7 C7             0.2931    -1.3348    -2.0321 C.2     
   8 O8             0.9641    -1.7034    -2.9727 O.2     
   9 C9            -1.1105    -1.8550    -1.8579 C.3     
  10 C10           -1.5418    -2.8430    -2.9546 C.3     
  11 C11           -2.2258    -3.6564    -1.8431 C.3     
  12 C12           -1.2143    -3.0287    -0.8696 C.3     
  13 C13            3.5293     2.1319    -1.3010 C.2     
  14 N14            4.0427     2.9175    -2.2146 N.2     
  15 C15            5.3170     3.1444    -1.8240 C.2     
  16 N16            5.5009     2.4900    -0.7074 N.2     
  17 O17            4.4838     1.9092    -0.3921 O.3     
  18 C18            6.3202     3.9798    -2.5314 C.ar    
  19 N19            5.9894     4.5874    -3.6628 N.ar    
  20 C20            6.8492     5.3372    -4.3211 C.ar    
  21 C21            8.1379     5.5183    -3.8524 C.ar    
  22 C22            8.5254     4.9004    -2.6723 C.ar    
  23 C23            7.5986     4.1231    -1.9983 C.ar    
  24 H24           -0.5451     1.8893    -0.8729 H       
  25 H25           -0.5281     1.8797     0.9075 H       
  26 H26            0.4474    -0.3686     0.9277 H       
  27 H27           -1.0158    -0.3828    -0.0901 H       
  28 H28            2.7916    -0.3037    -0.4790 H       
  29 H29            2.5818    -0.2833    -2.2490 H       
  30 H30            1.5780     1.9480    -2.1469 H       
  31 H31            1.4069     3.1429     0.0304 H       
  32 H32            1.9516     1.6714     0.8702 H       
  33 H33           -1.8360    -1.0625    -1.6744 H       
  34 H34           -2.2390    -2.4173    -3.6762 H       
  35 H35           -0.7080    -3.3632    -3.4262 H       
  36 H36           -3.2568    -3.3571    -1.6545 H       
  37 H37           -2.1109    -4.7343    -1.9571 H       
  38 H38           -0.2909    -3.5995    -0.7712 H       
  39 H39           -1.6471    -2.7528     0.0920 H       
  40 H40            6.5440     5.8166    -5.2395 H       
  41 H41            8.8357     6.1345    -4.4000 H       
  42 H42            9.5259     5.0264    -2.2857 H       
  43 H43            7.8662     3.6277    -1.0767 H       
@<TRIPOS>BOND
   1    1    2 1
   2    1    6 1
   3    1   24 1
   4    1   25 1
   5    2    3 1
   6    2   26 1
   7    2   27 1
   8    3    4 1
   9    3    7 am
  10    4    5 1
  11    4   28 1
  12    4   29 1
  13    5    6 1
  14    5   13 1
  15    5   30 1
  16    6   31 1
  17    6   32 1
  18    7    8 2
  19    7    9 1
  20    9   10 1
  21    9   12 1
  22    9   33 1
  23   10   11 1
  24   10   34 1
  25   10   35 1
  26   11   12 1
  27   11   36 1
  28   11   37 1
  29   12   38 1
  30   12   39 1
  31   13   14 2
  32   13   17 1
  33   14   15 1
  34   15   16 2
  35   15   18 1
  36   16   17 1
  37   18   19 ar
  38   18   23 ar
  39   19   20 ar
  40   20   21 ar
  41   20   40 1
  42   21   22 ar
  43   21   41 1
  44   22   23 ar
  45   22   42 1
  46   23   43 1

#	End of record

