#	Name: ASD01917563
#	Creating user name:	WinNT
#	Creation time:	15. 06. 2019 20:09

#	Modifying user name:	WinNT
#	Modification time:	15. 06. 2019 20:09

#	Program:	/corina/corina34_cracker 3.40 0067  02.08.2006

@<TRIPOS>MOLECULE
ASD01917563
  35   38    0    0    0
SMALL
NO_CHARGES


@<TRIPOS>ATOM
   1 C1            -0.5639     1.9865     1.7231 C.2     
   2 C2            -0.6813     0.6749     2.0433 C.2     
   3 C3             0.4695    -0.1278     2.0987 C.2     
   4 N4             1.6479     0.3872     1.8432 N.2     
   5 C5             1.7778     1.6835     1.5251 C.2     
   6 N6             0.6758     2.4990     1.4606 N.pl3   
   7 C7             2.8817     2.4626     1.2163 C.2     
   8 C8             2.4258     3.7610     0.9648 C.2     
   9 N9             1.1101     3.7824     1.1100 N.2     
  10 C10            3.2722     4.9165     0.5972 C.2     
  11 N11            2.7009     6.0846     0.2426 N.am    
  12 O12            4.4832     4.8129     0.6149 O.2     
  13 C13            3.5176     7.2848     0.0136 C.3     
  14 C14            2.8337     8.4536     0.7136 C.2     
  15 C15            1.5816     8.3748     1.2025 C.2     
  16 C16            0.6982     7.1469     1.1399 C.3     
  17 C17            1.2443     6.1901     0.0685 C.3     
  18 C18            3.4350     9.6932     0.9068 C.2     
  19 C19            2.6919    10.6025     1.5295 C.2     
  20 S20            1.1261     9.9115     1.9274 S.3     
  21 C21            4.9170     7.0785     0.5968 C.3     
  22 Br22          -2.3806    -0.0679     2.4131 Br      
  23 H23           -1.4389     2.6175     1.6715 H       
  24 H24            0.3836    -1.1739     2.3533 H       
  25 H25            3.9078     2.1280     1.1773 H       
  26 H26            3.5882     7.4849    -1.0556 H       
  27 H27            0.6987     6.6478     2.1090 H       
  28 H28           -0.3186     7.4422     0.8811 H       
  29 H29            1.0218     6.5828    -0.9236 H       
  30 H30            0.7894     5.2067     0.1864 H       
  31 H31            4.4405     9.9030     0.5729 H       
  32 H32            3.0034    11.6112     1.7575 H       
  33 H33            5.4581     6.3495    -0.0064 H       
  34 H34            5.4560     8.0259     0.5919 H       
  35 H35            4.8338     6.7131     1.6203 H       
@<TRIPOS>BOND
   1    1    2 2
   2    1    6 1
   3    1   23 1
   4    2    3 1
   5    2   22 1
   6    3    4 2
   7    3   24 1
   8    4    5 1
   9    5    6 1
  10    5    7 2
  11    6    9 1
  12    7    8 1
  13    7   25 1
  14    8    9 2
  15    8   10 1
  16   10   11 am
  17   10   12 2
  18   11   13 1
  19   11   17 1
  20   13   14 1
  21   13   21 1
  22   13   26 1
  23   14   18 1
  24   14   15 2
  25   15   16 1
  26   15   20 1
  27   16   17 1
  28   16   27 1
  29   16   28 1
  30   17   29 1
  31   17   30 1
  32   18   19 2
  33   18   31 1
  34   19   20 1
  35   19   32 1
  36   21   33 1
  37   21   34 1
  38   21   35 1

#	End of record

