#	Name: ASD01900644
#	Creating user name:	WinNT
#	Creation time:	15. 06. 2019 19:52

#	Modifying user name:	WinNT
#	Modification time:	15. 06. 2019 19:52

#	Program:	/corina/corina34_cracker 3.40 0067  02.08.2006

@<TRIPOS>MOLECULE
ASD01900644
  49   53    0    0    0
SMALL
NO_CHARGES


@<TRIPOS>ATOM
   1 C1            -0.0159     1.4197    -0.1172 C.ar    
   2 C2             0.0121     0.0201    -0.1217 C.ar    
   3 C3            -1.1776    -0.7090    -0.0690 C.ar    
   4 C4            -2.3901    -0.0421    -0.0112 C.ar    
   5 C5            -2.3997     1.3616    -0.0115 C.ar    
   6 O6            -3.5496    -0.7314     0.0521 O.3     
   7 C7            -4.7351    -0.1445    -0.1877 C.2     
   8 C8            -4.8976     1.1992    -0.2035 C.2     
   9 C9            -3.7149     2.0480     0.0374 C.2     
  10 C10           -5.9093    -1.0018    -0.4451 C.ar    
  11 N11           -7.0943    -0.4331    -0.6850 N.ar    
  12 C12           -8.1775    -1.1300    -0.9215 C.ar    
  13 C13           -8.1279    -2.5351    -0.9311 C.ar    
  14 C14           -6.8869    -3.1790    -0.6806 C.ar    
  15 C15           -5.7580    -2.3797    -0.4384 C.ar    
  16 C16           -9.2674    -3.3147    -1.1800 C.ar    
  17 C17           -9.1663    -4.6734    -1.1778 C.ar    
  18 C18           -7.9484    -5.3043    -0.9315 C.ar    
  19 C19           -6.8206    -4.5807    -0.6862 C.ar    
  20 C20           -1.2106     2.0814    -0.0569 C.ar    
  21 C21            1.2669    -0.6672    -0.1813 C.1     
  22 C22            2.2957    -1.2307    -0.2301 C.1     
  23 C23            3.5506    -1.9181    -0.2896 C.ar    
  24 C24            3.5864    -3.3151    -0.2945 C.ar    
  25 C25            4.7451    -1.1951    -0.3489 C.ar    
  26 C26            5.9498    -1.8639    -0.4059 C.ar    
  27 C27            5.9777    -3.2475    -0.4051 C.ar    
  28 C28            4.7987    -3.9702    -0.3520 C.ar    
  29 C29            1.2733     2.1982    -0.1726 C.3     
  30 N30           -3.8195     3.3325     0.2799 N.2     
  31 O31           -2.6748     4.0783     0.6517 O.3     
  32 H32           -1.1524    -1.7887    -0.0735 H       
  33 H33           -5.8669     1.6383    -0.3878 H       
  34 H34           -9.1127    -0.6236    -1.1096 H       
  35 H35           -4.7951    -2.8285    -0.2435 H       
  36 H36          -10.2188    -2.8409    -1.3719 H       
  37 H37          -10.0448    -5.2714    -1.3697 H       
  38 H38           -7.8979    -6.3831    -0.9353 H       
  39 H39           -5.8828    -5.0820    -0.4972 H       
  40 H40           -1.2313     3.1612    -0.0527 H       
  41 H41            2.6671    -3.8804    -0.2531 H       
  42 H42            4.7248    -0.1152    -0.3503 H       
  43 H43            6.8737    -1.3066    -0.4518 H       
  44 H44            6.9241    -3.7659    -0.4507 H       
  45 H45            4.8282    -5.0498    -0.3517 H       
  46 H46            1.5386     2.3883    -1.2126 H       
  47 H47            1.1477     3.1467     0.3496 H       
  48 H48            2.0661     1.6226     0.3052 H       
  49 H49           -2.8505     5.0160     0.8097 H       
@<TRIPOS>BOND
   1    1    2 ar
   2    1   29 1
   3    1   20 ar
   4    2    3 ar
   5    2   21 1
   6    3    4 ar
   7    3   32 1
   8    4    5 ar
   9    4    6 1
  10    5   20 ar
  11    5    9 1
  12    6    7 1
  13    7    8 2
  14    7   10 1
  15    8    9 1
  16    8   33 1
  17    9   30 2
  18   10   11 ar
  19   10   15 ar
  20   11   12 ar
  21   12   13 ar
  22   12   34 1
  23   13   14 ar
  24   13   16 ar
  25   14   15 ar
  26   14   19 ar
  27   15   35 1
  28   16   17 ar
  29   16   36 1
  30   17   18 ar
  31   17   37 1
  32   18   19 ar
  33   18   38 1
  34   19   39 1
  35   20   40 1
  36   21   22 3
  37   22   23 1
  38   23   24 ar
  39   23   25 ar
  40   24   28 ar
  41   24   41 1
  42   25   26 ar
  43   25   42 1
  44   26   27 ar
  45   26   43 1
  46   27   28 ar
  47   27   44 1
  48   28   45 1
  49   29   46 1
  50   29   47 1
  51   29   48 1
  52   30   31 1
  53   31   49 1

#	End of record

