#	Name: ASD01148344
#	Creating user name:	WinNT
#	Creation time:	15. 06. 2019 19:02

#	Modifying user name:	WinNT
#	Modification time:	15. 06. 2019 19:02

#	Program:	/corina/corina34_cracker 3.40 0067  02.08.2006

@<TRIPOS>MOLECULE
ASD01148344
  46   48    0    0    0
SMALL
NO_CHARGES


@<TRIPOS>ATOM
   1 C1            -0.4096     1.8317    -0.0441 C.ar    
   2 C2            -0.4707     0.4508     0.0159 C.ar    
   3 C3             0.6952    -0.2898     0.0950 C.ar    
   4 C4             1.9201     0.3501     0.1141 C.ar    
   5 C5             1.9805     1.7298     0.0542 C.ar    
   6 C6             0.8159     2.4704    -0.0249 C.ar    
   7 C7             3.3164     2.4269     0.0755 C.3     
   8 O8             4.3314     1.6170    -0.5516 O.3     
   9 C9             3.3033     3.6772    -0.8360 C.3     
  10 C10            3.8455     3.1362    -2.1454 C.2     
  11 N11            4.3969     1.9924    -1.9132 N.2     
  12 C12            3.7573     3.8030    -3.4593 C.ar    
  13 C13            4.3015     3.1908    -4.5915 C.ar    
  14 C14            3.1246     5.0434    -3.5722 C.ar    
  15 C15            3.0425     5.6652    -4.7978 C.ar    
  16 C16            3.5912     5.0556    -5.9284 C.ar    
  17 C17            4.2192     3.8127    -5.8166 C.ar    
  18 C18            3.5020     5.7228    -7.2442 C.2     
  19 O19            4.0742     5.2485    -8.2061 O.2     
  20 N20            2.7863     6.8570    -7.3775 N.am    
  21 C21            4.8116     3.1554    -7.0365 C.3     
  22 C22            3.7160     2.7952     1.5058 C.3     
  23 F23            3.7866     1.6346     2.2837 F       
  24 F24            4.9651     3.4251     1.4935 F       
  25 F25            2.7616     3.6626     2.0480 F       
  26 Cl26          -2.0097    -0.3522    -0.0076 Cl      
  27 C27            2.6979     7.5183    -8.6818 C.3     
  28 C28            1.8328     8.7743    -8.5592 C.3     
  29 F29            2.4088     9.6485    -7.6312 F       
  30 F30            1.7484     9.4058    -9.8047 F       
  31 F31            0.5502     8.4170    -8.1297 F       
  32 H32           -1.3192     2.4102    -0.1103 H       
  33 H33            0.6481    -1.3678     0.1422 H       
  34 H34            2.8303    -0.2280     0.1763 H       
  35 H35            0.8637     3.5484    -0.0717 H       
  36 H36            2.2880     4.0527    -0.9633 H       
  37 H37            3.9570     4.4533    -0.4378 H       
  38 H38            4.7870     2.2300    -4.5051 H       
  39 H39            2.6997     5.5144    -2.6981 H       
  40 H40            2.5534     6.6241    -4.8851 H       
  41 H41            2.3297     7.2354    -6.6100 H       
  42 H42            5.8083     3.5575    -7.2180 H       
  43 H43            4.8779     2.0797    -6.8735 H       
  44 H44            4.1770     3.3536    -7.9003 H       
  45 H45            3.6972     7.7967    -9.0165 H       
  46 H46            2.2492     6.8372    -9.4049 H       
@<TRIPOS>BOND
   1    1    2 ar
   2    1    6 ar
   3    1   32 1
   4    2    3 ar
   5    2   26 1
   6    3    4 ar
   7    3   33 1
   8    4    5 ar
   9    4   34 1
  10    5    6 ar
  11    5    7 1
  12    6   35 1
  13    7    8 1
  14    7    9 1
  15    7   22 1
  16    8   11 1
  17    9   10 1
  18    9   36 1
  19    9   37 1
  20   10   11 2
  21   10   12 1
  22   12   13 ar
  23   12   14 ar
  24   13   17 ar
  25   13   38 1
  26   14   15 ar
  27   14   39 1
  28   15   16 ar
  29   15   40 1
  30   16   17 ar
  31   16   18 1
  32   17   21 1
  33   18   19 2
  34   18   20 am
  35   20   27 1
  36   20   41 1
  37   21   42 1
  38   21   43 1
  39   21   44 1
  40   22   23 1
  41   22   24 1
  42   22   25 1
  43   27   28 1
  44   27   45 1
  45   27   46 1
  46   28   29 1
  47   28   30 1
  48   28   31 1

#	End of record

