#	Name: ASD07301338
#	Creating user name:	WinNT
#	Creation time:	15. 06. 2019 21:11

#	Modifying user name:	WinNT
#	Modification time:	15. 06. 2019 21:11

#	Program:	/corina/corina34_cracker 3.40 0067  02.08.2006

@<TRIPOS>MOLECULE
ASD07301338
  31   31    0    0    0
SMALL
NO_CHARGES


@<TRIPOS>ATOM
   1 C1            -0.5382     0.5496     1.2999 C.3     
   2 C2             0.0024    -0.0038     0.0067 C.2     
   3 C3             1.3293    -0.6209    -0.0274 C.2     
   4 C4             1.4658    -2.0713     0.1150 C.2     
   5 C5             2.8319    -2.7066     0.0800 C.3     
   6 O6            -0.6623     0.0622    -1.0066 O.2     
   7 O7             0.4789    -2.7622     0.2613 O.2     
   8 N8             2.4057     0.1326    -0.1870 N.2     
   9 N9             2.2805     1.3960    -0.4155 N.pl3   
  10 C10            3.4080     2.1704    -0.6885 C.ar    
  11 C11            3.2742     3.5307    -0.9346 C.ar    
  12 C12            4.3991     4.2972    -1.2058 C.ar    
  13 C13            5.6553     3.7012    -1.2302 C.ar    
  14 C14            5.7846     2.3479    -0.9854 C.ar    
  15 C15            4.6680     1.5826    -0.7089 C.ar    
  16 S16            4.2355     6.0233    -1.5195 S.3     
  17 C17            5.9472     6.5494    -1.8092 C.3     
  18 H18            0.1544     0.3222     2.1102 H       
  19 H19           -0.6534     1.6300     1.2128 H       
  20 H20           -1.5068     0.0969     1.5121 H       
  21 H21            3.4407    -2.3041     0.8895 H       
  22 H22            2.7341    -3.7855     0.2008 H       
  23 H23            3.3090    -2.4898    -0.8758 H       
  24 H24            1.4022     1.8074    -0.3975 H       
  25 H25            2.2974     3.9908    -0.9154 H       
  26 H26            6.5310     4.2971    -1.4412 H       
  27 H27            6.7615     1.8877    -1.0057 H       
  28 H28            4.7734     0.5258    -0.5129 H       
  29 H29            6.5467     6.3396    -0.9234 H       
  30 H30            6.3552     6.0056    -2.6612 H       
  31 H31            5.9683     7.6192    -2.0170 H       
@<TRIPOS>BOND
   1    1    2 1
   2    1   18 1
   3    1   19 1
   4    1   20 1
   5    2    3 1
   6    2    6 2
   7    3    4 1
   8    3    8 2
   9    4    5 1
  10    4    7 2
  11    5   21 1
  12    5   22 1
  13    5   23 1
  14    8    9 1
  15    9   10 1
  16    9   24 1
  17   10   11 ar
  18   10   15 ar
  19   11   12 ar
  20   11   25 1
  21   12   13 ar
  22   12   16 1
  23   13   14 ar
  24   13   26 1
  25   14   15 ar
  26   14   27 1
  27   15   28 1
  28   16   17 1
  29   17   29 1
  30   17   30 1
  31   17   31 1

#	End of record

