#	Name: ASD04880147
#	Creating user name:	WinNT
#	Creation time:	15. 06. 2019 20:52

#	Modifying user name:	WinNT
#	Modification time:	15. 06. 2019 20:52

#	Program:	/corina/corina34_cracker 3.40 0067  02.08.2006

@<TRIPOS>MOLECULE
ASD04880147
  61   64    0    0    0
SMALL
NO_CHARGES


@<TRIPOS>ATOM
   1 C1            -0.0144     1.2118     0.0087 C.2     
   2 O2             0.0434    -0.0026     0.0316 O.2     
   3 N3             1.1186     1.9394    -0.0485 N.am    
   4 N4             1.1864     3.3238    -0.1914 N.2     
   5 C5             2.3867     3.7918    -0.2204 C.2     
   6 C6             3.3752     2.6555    -0.0861 C.3     
   7 C7             2.4860     1.4022     0.0362 C.3     
   8 C8             4.2656     2.5692    -1.3273 C.3     
   9 C9             4.2247     2.8295     1.1745 C.3     
  10 C10            2.7414     5.2154    -0.3635 C.ar    
  11 C11            1.7363     6.1795    -0.4805 C.ar    
  12 C12            2.0744     7.5127    -0.6139 C.ar    
  13 C13            3.4149     7.8934    -0.6316 C.ar    
  14 C14            4.4126     6.9369    -0.5159 C.ar    
  15 C15            4.0829     5.6049    -0.3767 C.ar    
  16 O16            3.7454     9.2054    -0.7629 O.3     
  17 C17            5.1380     9.5257    -0.7734 C.3     
  18 O18            1.0990     8.4534    -0.7285 O.3     
  19 C19           -0.2533     7.9921    -0.7031 C.3     
  20 C20           -1.3274     1.8898     0.0374 C.ar    
  21 C21           -2.5031     1.1435    -0.0541 C.ar    
  22 C22           -3.7293     1.7856    -0.0260 C.ar    
  23 C23           -3.7875     3.1679     0.0923 C.ar    
  24 C24           -2.6237     3.9086     0.1826 C.ar    
  25 C25           -1.3962     3.2784     0.1619 C.ar    
  26 O26           -4.8768     1.0626    -0.1149 O.3     
  27 C27           -6.1063     1.7900    -0.0795 C.3     
  28 C28           -7.2618     0.8289    -0.1892 C.ar    
  29 C29           -7.8188     0.2845     0.9529 C.ar    
  30 C30           -8.8788    -0.5971     0.8522 C.ar    
  31 C31           -9.3821    -0.9339    -0.3904 C.ar    
  32 C32           -8.8257    -0.3888    -1.5324 C.ar    
  33 C33           -7.7685     0.4961    -1.4315 C.ar    
  34 H34            2.6454     0.9085     0.9948 H       
  35 H35            2.6798     0.7149    -0.7873 H       
  36 H36            4.8338     3.4935    -1.4318 H       
  37 H37            4.9532     1.7298    -1.2235 H       
  38 H38            3.6442     2.4228    -2.2107 H       
  39 H39            3.5745     2.8659     2.0486 H       
  40 H40            4.9124     1.9890     1.2680 H       
  41 H41            4.7923     3.7574     1.1049 H       
  42 H42            0.6978     5.8832    -0.4671 H       
  43 H43            5.4502     7.2363    -0.5308 H       
  44 H44            4.8617     4.8626    -0.2823 H       
  45 H45            5.6216     9.0170    -1.6073 H       
  46 H46            5.2623    10.6030    -0.8836 H       
  47 H47            5.5925     9.2015     0.1628 H       
  48 H48           -0.9289     8.8416    -0.8031 H       
  49 H49           -0.4163     7.2991    -1.5285 H       
  50 H50           -0.4461     7.4838     0.2416 H       
  51 H51           -2.4565     0.0685    -0.1468 H       
  52 H52           -4.7454     3.6662     0.1136 H       
  53 H53           -2.6755     4.9835     0.2738 H       
  54 H54           -0.4891     3.8597     0.2376 H       
  55 H55           -6.1773     2.3379     0.8601 H       
  56 H56           -6.1372     2.4920    -0.9127 H       
  57 H57           -7.4256     0.5476     1.9237 H       
  58 H58           -9.3135    -1.0230     1.7444 H       
  59 H59          -10.2097    -1.6233    -0.4691 H       
  60 H60           -9.2186    -0.6522    -2.5033 H       
  61 H61           -7.3362     0.9249    -2.3235 H       
@<TRIPOS>BOND
   1    1    2 2
   2    1    3 am
   3    1   20 1
   4    3    4 1
   5    3    7 1
   6    4    5 2
   7    5    6 1
   8    5   10 1
   9    6    7 1
  10    6    8 1
  11    6    9 1
  12    7   34 1
  13    7   35 1
  14    8   36 1
  15    8   37 1
  16    8   38 1
  17    9   39 1
  18    9   40 1
  19    9   41 1
  20   10   11 ar
  21   10   15 ar
  22   11   12 ar
  23   11   42 1
  24   12   13 ar
  25   12   18 1
  26   13   14 ar
  27   13   16 1
  28   14   15 ar
  29   14   43 1
  30   15   44 1
  31   16   17 1
  32   17   45 1
  33   17   46 1
  34   17   47 1
  35   18   19 1
  36   19   48 1
  37   19   49 1
  38   19   50 1
  39   20   21 ar
  40   20   25 ar
  41   21   22 ar
  42   21   51 1
  43   22   23 ar
  44   22   26 1
  45   23   24 ar
  46   23   52 1
  47   24   25 ar
  48   24   53 1
  49   25   54 1
  50   26   27 1
  51   27   28 1
  52   27   55 1
  53   27   56 1
  54   28   29 ar
  55   28   33 ar
  56   29   30 ar
  57   29   57 1
  58   30   31 ar
  59   30   58 1
  60   31   32 ar
  61   31   59 1
  62   32   33 ar
  63   32   60 1
  64   33   61 1

#	End of record

