#	Name: ASD04590002
#	Creating user name:	WinNT
#	Creation time:	15. 06. 2019 20:50

#	Modifying user name:	WinNT
#	Modification time:	15. 06. 2019 20:50

#	Program:	/corina/corina34_cracker 3.40 0067  02.08.2006

@<TRIPOS>MOLECULE
ASD04590002
  24   25    0    0    0
SMALL
NO_CHARGES


@<TRIPOS>ATOM
   1 O1            -0.0163     1.3542     0.0095 O.3     
   2 C2             0.0021    -0.0041     0.0020 C.ar    
   3 C3             0.0228    -0.6926     1.1970 C.ar    
   4 C4             0.0418    -2.0928     1.1935 C.ar    
   5 C5             0.0615    -2.6306     2.5000 C.2     
   6 C6             0.0833    -3.9356     2.8824 C.2     
   7 C7             0.0919    -5.0976     2.1087 C.2     
   8 C8             0.0808    -5.2497     0.7422 C.2     
   9 C9             0.0571    -4.2385    -0.2558 C.2     
  10 O10            0.0506    -4.6182    -1.4165 O.2     
  11 C11            0.0400    -2.7896    -0.0417 C.ar    
  12 C12            0.0176    -2.0726    -1.2463 C.ar    
  13 C13           -0.0059    -0.6894    -1.2174 C.ar    
  14 O14           -0.0281     0.0095    -2.3838 O.3     
  15 O15            0.0141    -2.7317    -2.4344 O.3     
  16 O16            0.0946    -6.5290     0.2887 O.3     
  17 H17            0.8616     1.7595     0.0033 H       
  18 H18            0.0247    -0.1534     2.1328 H       
  19 H19            0.0593    -1.9082     3.3029 H       
  20 H20            0.0963    -4.0981     3.9500 H       
  21 H21            0.1106    -6.0198     2.6704 H       
  22 H22           -0.9178     0.1965    -2.7134 H       
  23 H23           -0.8702    -2.9345    -2.7690 H       
  24 H24            0.1110    -7.1947     0.9899 H       
@<TRIPOS>BOND
   1    1    2 1
   2    1   17 1
   3    2    3 ar
   4    2   13 ar
   5    3    4 ar
   6    3   18 1
   7    4    5 1
   8    4   11 ar
   9    5    6 2
  10    5   19 1
  11    6    7 1
  12    6   20 1
  13    7    8 2
  14    7   21 1
  15    8    9 1
  16    8   16 1
  17    9   10 2
  18    9   11 1
  19   11   12 ar
  20   12   13 ar
  21   12   15 1
  22   13   14 1
  23   14   22 1
  24   15   23 1
  25   16   24 1

#	End of record

