#	Name: ASD00310067
#	Creating user name:	WinNT
#	Creation time:	15. 06. 2019 18:33

#	Modifying user name:	WinNT
#	Modification time:	15. 06. 2019 18:33

#	Program:	/corina/corina34_cracker 3.40 0067  02.08.2006

@<TRIPOS>MOLECULE
ASD00310067
  38   40    0    0    0
SMALL
NO_CHARGES


@<TRIPOS>ATOM
   1 O1             1.0473     1.2103     0.9214 O.3     
   2 B2             0.8629    -0.1946     0.7550 Du      
   3 O3             1.7064    -0.8759    -0.1723 O.3     
   4 C4             3.0932    -0.5660     0.0127 C.3     
   5 C5             3.2690     0.9554     0.0113 C.3     
   6 C6             2.4197     1.5657     1.1302 C.3     
   7 C7            -0.2350    -0.9679     1.5683 C.ar    
   8 C8            -0.3986    -2.3425     1.3902 C.ar    
   9 C9            -1.3620    -3.0181     2.1053 C.ar    
  10 C10           -2.1717    -2.3323     3.0036 C.ar    
  11 C11           -2.0113    -0.9629     3.1828 C.ar    
  12 C12           -1.0454    -0.2831     2.4750 C.ar    
  13 O13           -3.1205    -3.0006     3.7065 O.3     
  14 O14           -4.5177    -3.6817     6.0453 O.3     
  15 C15           -5.1911    -2.8543     5.0878 C.3     
  16 C16           -3.8294    -2.2623     4.7038 C.3     
  17 C17           -3.5080    -2.6693     6.1472 C.3     
  18 C18            4.7418     1.2992     0.2430 C.3     
  19 C19            2.8185     1.5201    -1.3374 C.3     
  20 H20            3.4336    -0.9717     0.9654 H       
  21 H21            3.6756    -1.0012    -0.7995 H       
  22 H22            2.5218     2.6508     1.1151 H       
  23 H23            2.7538     1.1800     2.0934 H       
  24 H24            0.2296    -2.8756     0.6920 H       
  25 H25           -1.4891    -4.0818     1.9679 H       
  26 H26           -2.6422    -0.4326     3.8808 H       
  27 H27           -0.9183     0.7798     2.6179 H       
  28 H28           -5.6603    -3.4189     4.2820 H       
  29 H29           -5.8660    -2.1286     5.5416 H       
  30 H30           -3.8365    -1.1869     4.5264 H       
  31 H31           -3.7434    -1.8953     6.8776 H       
  32 H32           -2.5024    -3.0717     6.2696 H       
  33 H33            5.3461     0.8631    -0.5524 H       
  34 H34            4.8666     2.3821     0.2420 H       
  35 H35            5.0618     0.8975     1.2044 H       
  36 H36            1.7690     1.2757    -1.5014 H       
  37 H37            2.9438     2.6029    -1.3380 H       
  38 H38            3.4219     1.0841    -2.1336 H       
@<TRIPOS>BOND
   1    1    2 1
   2    1    6 1
   3    2    3 1
   4    2    7 1
   5    3    4 1
   6    4    5 1
   7    4   20 1
   8    4   21 1
   9    5    6 1
  10    5   18 1
  11    5   19 1
  12    6   22 1
  13    6   23 1
  14    7    8 ar
  15    7   12 ar
  16    8    9 ar
  17    8   24 1
  18    9   10 ar
  19    9   25 1
  20   10   11 ar
  21   10   13 1
  22   11   12 ar
  23   11   26 1
  24   12   27 1
  25   13   16 1
  26   14   15 1
  27   14   17 1
  28   15   16 1
  29   15   28 1
  30   15   29 1
  31   16   17 1
  32   16   30 1
  33   17   31 1
  34   17   32 1
  35   18   33 1
  36   18   34 1
  37   18   35 1
  38   19   36 1
  39   19   37 1
  40   19   38 1

#	End of record

