#	Name: ASD03731541
#	Creating user name:	WinNT
#	Creation time:	15. 06. 2019 20:45

#	Modifying user name:	WinNT
#	Modification time:	15. 06. 2019 20:45

#	Program:	/corina/corina34_cracker 3.40 0067  02.08.2006

@<TRIPOS>MOLECULE
ASD03731541
  33   34    0    0    0
SMALL
NO_CHARGES


@<TRIPOS>ATOM
   1 C1            -0.4029     1.1047    -1.9597 C.2     
   2 C2            -0.2816    -0.2735    -1.4497 C.ar    
   3 C3             0.9022    -0.9942    -1.6484 C.ar    
   4 C4             1.0103    -2.2840    -1.1689 C.ar    
   5 C5            -0.0528    -2.8657    -0.4907 C.ar    
   6 C6            -1.2311    -2.1523    -0.2919 C.ar    
   7 C7            -1.3462    -0.8626    -0.7612 C.ar    
   8 O8             0.5262     1.6170    -2.5540 O.2     
   9 N9            -1.5454     1.7945    -1.7721 N.am    
  10 S10           -1.6816     3.3423    -2.3449 S.o2    
  11 O11           -2.9836     3.7498    -1.9475 O.2     
  12 O12           -0.5245     4.0023    -1.8499 O.2     
  13 C13           -1.5920     3.1672    -4.1482 C.3     
  14 F14            1.9364    -0.4286    -2.3085 F       
  15 O15            0.0574    -4.1342    -0.0208 O.3     
  16 C16            1.2597    -4.7565    -0.1402 C.ar    
  17 C17            2.2109    -4.6280     0.8617 C.ar    
  18 C18            3.4330    -5.2619     0.7382 C.ar    
  19 C19            3.7076    -6.0246    -0.3849 C.ar    
  20 C20            2.7600    -6.1533    -1.3843 C.ar    
  21 C21            1.5351    -5.5257    -1.2615 C.ar    
  22 Cl22           5.2432    -6.8195    -0.5387 Cl      
  23 Cl23           4.6242    -5.1015     1.9908 Cl      
  24 Cl24          -2.5558    -2.8868     0.5563 Cl      
  25 H25            1.9226    -2.8415    -1.3216 H       
  26 H26           -2.2594    -0.3086    -0.6015 H       
  27 H27           -2.2879     1.3844    -1.3016 H       
  28 H28           -2.4085     2.5325    -4.4926 H       
  29 H29           -1.6744     4.1495    -4.6132 H       
  30 H30           -0.6393     2.7142    -4.4224 H       
  31 H31            1.9967    -4.0330     1.7372 H       
  32 H32            2.9761    -6.7481    -2.2594 H       
  33 H33            0.7940    -5.6307    -2.0399 H       
@<TRIPOS>BOND
   1    1    2 1
   2    1    8 2
   3    1    9 am
   4    2    3 ar
   5    2    7 ar
   6    3    4 ar
   7    3   14 1
   8    4    5 ar
   9    4   25 1
  10    5    6 ar
  11    5   15 1
  12    6    7 ar
  13    6   24 1
  14    7   26 1
  15    9   10 am
  16    9   27 1
  17   10   11 2
  18   10   12 2
  19   10   13 1
  20   13   28 1
  21   13   29 1
  22   13   30 1
  23   15   16 1
  24   16   17 ar
  25   16   21 ar
  26   17   18 ar
  27   17   31 1
  28   18   19 ar
  29   18   23 1
  30   19   20 ar
  31   19   22 1
  32   20   21 ar
  33   20   32 1
  34   21   33 1

#	End of record

