#	Name: ASD00071103
#	Creating user name:	WinNT
#	Creation time:	15. 06. 2019 18:30

#	Modifying user name:	WinNT
#	Modification time:	15. 06. 2019 18:30

#	Program:	/corina/corina34_cracker 3.40 0067  02.08.2006

@<TRIPOS>MOLECULE
ASD00071103
  45   47    0    0    0
SMALL
NO_CHARGES


@<TRIPOS>ATOM
   1 N1             0.0076     1.3167    -0.0567 N.4     
   2 N2             1.0974    -0.7433    -0.1741 N.2     
   3 C3            -0.0134    -0.0811    -0.0466 C.2     
   4 N4            -1.2055    -0.7421     0.0981 N.pl3   
   5 C5            -1.3722    -2.0501    -0.5539 C.3     
   6 C6            -0.0825    -2.8176    -0.3887 C.ar    
   7 C7            -0.0763    -4.1944    -0.4122 C.ar    
   8 C8             1.1167    -4.8824    -0.2707 C.ar    
   9 C9             2.3041    -4.1913    -0.1060 C.ar    
  10 C10            2.3083    -2.8120    -0.0760 C.ar    
  11 C11            1.1090    -2.1119    -0.2139 C.ar    
  12 C12            3.5985    -4.9488     0.0419 C.3     
  13 C13           -2.2924    -0.1573     0.8874 C.3     
  14 C14           -2.2524    -0.7139     2.2873 C.ar    
  15 C15           -1.4642    -0.1076     3.2532 C.ar    
  16 C16           -1.4290    -0.6220     4.5416 C.ar    
  17 C17           -2.1787    -1.7376     4.8620 C.ar    
  18 C18           -2.9651    -2.3437     3.9010 C.ar    
  19 C19           -3.0081    -1.8297     2.6127 C.ar    
  20 O20           -3.7860    -2.4229     1.6694 O.3     
  21 C21           -4.5377    -3.5685     2.0751 C.3     
  22 O22           -0.7263     0.9894     2.9386 O.3     
  23 C23            0.0625     1.5622     3.9834 C.3     
  24 H24            0.9435     1.6376    -0.2548 H       
  25 H25           -0.6223     1.6574    -0.7676 H       
  26 H26           -0.2832     1.6640     0.8449 H       
  27 H27           -2.1894    -2.5959    -0.0822 H       
  28 H28           -1.5848    -1.9096    -1.6137 H       
  29 H29           -1.0012    -4.7370    -0.5406 H       
  30 H30            1.1206    -5.9622    -0.2886 H       
  31 H31            3.2369    -2.2757     0.0529 H       
  32 H32            4.0396    -5.1100    -0.9418 H       
  33 H33            4.2880    -4.3729     0.6592 H       
  34 H34            3.4043    -5.9113     0.5151 H       
  35 H35           -2.1734     0.9256     0.9234 H       
  36 H36           -3.2490    -0.4026     0.4261 H       
  37 H37           -0.8149    -0.1502     5.2944 H       
  38 H38           -2.1497    -2.1367     5.8651 H       
  39 H39           -3.5502    -3.2156     4.1539 H       
  40 H40           -5.1136    -3.9434     1.2291 H       
  41 H41           -3.8569    -4.3449     2.4239 H       
  42 H42           -5.2161    -3.2908     2.8819 H       
  43 H43           -0.5878     1.8715     4.8017 H       
  44 H44            0.7766     0.8231     4.3464 H       
  45 H45            0.6003     2.4289     3.5992 H       
@<TRIPOS>BOND
   1    1    3 1
   2    1   24 1
   3    1   25 1
   4    1   26 1
   5    2    3 2
   6    2   11 1
   7    3    4 1
   8    4    5 1
   9    4   13 1
  10    5    6 1
  11    5   27 1
  12    5   28 1
  13    6    7 ar
  14    6   11 ar
  15    7    8 ar
  16    7   29 1
  17    8    9 ar
  18    8   30 1
  19    9   10 ar
  20    9   12 1
  21   10   11 ar
  22   10   31 1
  23   12   32 1
  24   12   33 1
  25   12   34 1
  26   13   14 1
  27   13   35 1
  28   13   36 1
  29   14   15 ar
  30   14   19 ar
  31   15   16 ar
  32   15   22 1
  33   16   17 ar
  34   16   37 1
  35   17   18 ar
  36   17   38 1
  37   18   19 ar
  38   18   39 1
  39   19   20 1
  40   20   21 1
  41   21   40 1
  42   21   41 1
  43   21   42 1
  44   22   23 1
  45   23   43 1
  46   23   44 1
  47   23   45 1

#	End of record

