#	Name: ASD01150638
#	Creating user name:	WinNT
#	Creation time:	15. 06. 2019 19:04

#	Modifying user name:	WinNT
#	Modification time:	15. 06. 2019 19:04

#	Program:	/corina/corina34_cracker 3.40 0067  02.08.2006

@<TRIPOS>MOLECULE
ASD01150638
  53   55    0    0    0
SMALL
NO_CHARGES


@<TRIPOS>ATOM
   1 C1            -0.0099     1.3675     0.0275 C.ar    
   2 C2             0.0045    -0.0153     0.0149 C.ar    
   3 C3            -2.3961    -0.0442     0.0312 C.ar    
   4 C4            -2.4151     1.3431     0.0550 C.ar    
   5 C5            -1.2219     2.0509     0.0476 C.ar    
   6 N6            -1.2371     3.4507     0.0609 N.am    
   7 C7            -1.3326     4.1013     1.2337 C.2     
   8 N8            -1.3501     5.4464     1.2833 N.am    
   9 C9            -1.2706     6.1657     0.1446 C.2     
  10 C10           -1.1655     5.4601    -1.1414 C.2     
  11 N11           -1.1469     4.1532    -1.1466 N.2     
  12 O12           -1.2862     7.3820     0.1812 O.2     
  13 C13           -1.4559     6.1298     2.5747 C.3     
  14 O14           -1.4049     3.4639     2.2670 O.2     
  15 C15           -0.0756     6.3785     3.1260 C.ar    
  16 O16           -1.0839     6.1559    -2.3054 O.3     
  17 C17           -0.9844     5.3947    -3.5106 C.3     
  18 C18           -1.1837    -0.7213     0.0169 C.ar    
  19 N19           -3.5987    -0.7614     0.0390 N.am    
  20 C20           -3.6974    -1.9190    -0.6440 C.2     
  21 O21           -2.7788    -2.2908    -1.3433 O.2     
  22 C22           -4.9492    -2.7516    -0.5389 C.3     
  23 C23            0.5886     7.5519     2.8205 C.ar    
  24 C24            1.8556     7.7845     3.3242 C.ar    
  25 C25            2.4616     6.8440     4.1349 C.ar    
  26 C26            1.7960     5.6631     4.4438 C.ar    
  27 C27            0.5220     5.4361     3.9406 C.ar    
  28 F28            1.1531     2.0550     0.0259 F       
  29 Cl29           4.0521     7.1361     4.7664 Cl      
  30 N30            2.4057     4.7091     5.2630 N.3     
  31 C31            1.6075     4.4661     6.4721 C.3     
  32 C32            2.6431     3.4591     4.5288 C.3     
  33 H33            0.9459    -0.5444     0.0030 H       
  34 H34           -3.3570     1.8709     0.0792 H       
  35 H35           -1.9707     7.0813     2.4412 H       
  36 H36           -2.0182     5.5070     3.2704 H       
  37 H37           -0.0881     4.7753    -3.4762 H       
  38 H38           -1.8628     4.7573    -3.6114 H       
  39 H39           -0.9262     6.0708    -4.3636 H       
  40 H40           -1.1693    -1.8012     0.0071 H       
  41 H41           -4.3608    -0.4250     0.5361 H       
  42 H42           -5.6543    -2.4467    -1.3121 H       
  43 H43           -4.6978    -3.8039    -0.6709 H       
  44 H44           -5.4009    -2.6062     0.4425 H       
  45 H45            0.1172     8.2885     2.1868 H       
  46 H46            2.3719     8.7020     3.0833 H       
  47 H47            0.0021     4.5200     4.1789 H       
  48 H48            0.6197     4.1030     6.1884 H       
  49 H49            2.1047     3.7198     7.0917 H       
  50 H50            1.5059     5.3950     7.0332 H       
  51 H51            3.2944     3.6560     3.6772 H       
  52 H52            3.1183     2.7342     5.1897 H       
  53 H53            1.6928     3.0596     4.1747 H       
@<TRIPOS>BOND
   1    1    2 ar
   2    1   28 1
   3    1    5 ar
   4    2   18 ar
   5    2   33 1
   6    3    4 ar
   7    3   19 1
   8    3   18 ar
   9    4    5 ar
  10    4   34 1
  11    5    6 1
  12    6    7 am
  13    6   11 1
  14    7    8 am
  15    7   14 2
  16    8    9 am
  17    8   13 1
  18    9   10 1
  19    9   12 2
  20   10   11 2
  21   10   16 1
  22   13   15 1
  23   13   35 1
  24   13   36 1
  25   15   23 ar
  26   15   27 ar
  27   16   17 1
  28   17   37 1
  29   17   38 1
  30   17   39 1
  31   18   40 1
  32   19   20 am
  33   19   41 1
  34   20   21 2
  35   20   22 1
  36   22   42 1
  37   22   43 1
  38   22   44 1
  39   23   24 ar
  40   23   45 1
  41   24   25 ar
  42   24   46 1
  43   25   26 ar
  44   25   29 1
  45   26   27 ar
  46   26   30 1
  47   27   47 1
  48   30   31 1
  49   30   32 1
  50   31   48 1
  51   31   49 1
  52   31   50 1
  53   32   51 1
  54   32   52 1
  55   32   53 1

#	End of record

