#	Name: ASD08150065
#	Creating user name:	WinNT
#	Creation time:	15. 06. 2019 21:15

#	Modifying user name:	WinNT
#	Modification time:	15. 06. 2019 21:15

#	Program:	/corina/corina34_cracker 3.40 0067  02.08.2006

@<TRIPOS>MOLECULE
ASD08150065
  45   46    0    0    0
SMALL
NO_CHARGES


@<TRIPOS>ATOM
   1 C1             0.1080     1.6849    -0.0465 C.2     
   2 N2             0.0311     0.3411     0.0224 N.am    
   3 O3             1.1886     2.2259    -0.1735 O.2     
   4 O4            -1.0131     2.4276     0.0199 O.3     
   5 C5            -1.2746    -1.1379     1.4356 C.2     
   6 C6            -1.2717    -0.3112     0.1755 C.3     
   7 C7            -1.5333    -1.2171    -1.0294 C.3     
   8 O8            -0.3269    -1.1025     2.1831 O.2     
   9 C9             1.2503    -0.4674    -0.0559 C.3     
  10 C10            1.6272    -0.6693    -1.5009 C.ar    
  11 C11            2.3444     0.3054    -2.1698 C.ar    
  12 C12            2.6911     0.1227    -3.4945 C.ar    
  13 C13            2.3191    -1.0400    -4.1537 C.ar    
  14 C14            1.5996    -2.0165    -3.4803 C.ar    
  15 C15            1.2602    -1.8314    -2.1540 C.ar    
  16 O16            2.6586    -1.2219    -5.4570 O.3     
  17 C17            2.2422    -2.4430    -6.0715 C.3     
  18 C18           -0.8548     3.8687    -0.0607 C.3     
  19 C19           -2.2067     4.5284     0.0302 C.ar    
  20 C20           -2.7198     4.8859     1.2630 C.ar    
  21 C21           -3.9599     5.4909     1.3464 C.ar    
  22 C22           -4.6866     5.7390     0.1969 C.ar    
  23 C23           -4.1731     5.3823    -1.0359 C.ar    
  24 C24           -2.9311     4.7811    -1.1197 C.ar    
  25 H25           -2.1243    -1.7620     1.6700 H       
  26 H26           -2.0526     0.4468     0.2365 H       
  27 H27           -0.8257    -2.0461    -1.0210 H       
  28 H28           -2.5500    -1.6067    -0.9771 H       
  29 H29           -1.4106    -0.6439    -1.9483 H       
  30 H30            2.0603     0.0456     0.4626 H       
  31 H31            1.0748    -1.4358     0.4126 H       
  32 H32            2.6334     1.2105    -1.6564 H       
  33 H33            3.2510     0.8844    -4.0167 H       
  34 H34            1.3088    -2.9224    -3.9912 H       
  35 H35            0.7041    -2.5933    -1.6280 H       
  36 H36            2.6770    -3.2864    -5.5351 H       
  37 H37            1.1549    -2.5135    -6.0395 H       
  38 H38            2.5770    -2.4604    -7.1086 H       
  39 H39           -0.2270     4.2118     0.7616 H       
  40 H40           -0.3860     4.1302    -1.0094 H       
  41 H41           -2.1520     4.6921     2.1610 H       
  42 H42           -4.3611     5.7696     2.3096 H       
  43 H43           -5.6558     6.2111     0.2622 H       
  44 H44           -4.7410     5.5758    -1.9339 H       
  45 H45           -2.5283     4.5058    -2.0832 H       
@<TRIPOS>BOND
   1    1    2 am
   2    1    3 2
   3    1    4 1
   4    2    6 1
   5    2    9 1
   6    4   18 1
   7    5    6 1
   8    5    8 2
   9    5   25 1
  10    6    7 1
  11    6   26 1
  12    7   27 1
  13    7   28 1
  14    7   29 1
  15    9   10 1
  16    9   30 1
  17    9   31 1
  18   10   11 ar
  19   10   15 ar
  20   11   12 ar
  21   11   32 1
  22   12   13 ar
  23   12   33 1
  24   13   14 ar
  25   13   16 1
  26   14   15 ar
  27   14   34 1
  28   15   35 1
  29   16   17 1
  30   17   36 1
  31   17   37 1
  32   17   38 1
  33   18   19 1
  34   18   39 1
  35   18   40 1
  36   19   20 ar
  37   19   24 ar
  38   20   21 ar
  39   20   41 1
  40   21   22 ar
  41   21   42 1
  42   22   23 ar
  43   22   43 1
  44   23   24 ar
  45   23   44 1
  46   24   45 1

#	End of record

