#	Name: ASD01680135
#	Creating user name:	WinNT
#	Creation time:	15. 06. 2019 19:22

#	Modifying user name:	WinNT
#	Modification time:	15. 06. 2019 19:22

#	Program:	/corina/corina34_cracker 3.40 0067  02.08.2006

@<TRIPOS>MOLECULE
ASD01680135
  85   89    0    0    0
SMALL
NO_CHARGES


@<TRIPOS>ATOM
   1 N1             0.0443     1.4003     0.1639 N.am    
   2 C2             0.0202    -0.0651     0.0040 C.3     
   3 C3             1.4291    -0.5353     0.4437 C.3     
   4 C4             2.3236     0.6096    -0.1008 C.3     
   5 C5             1.4389     1.8597     0.0895 C.3     
   6 C6            -1.0340     2.1887     0.3429 C.2     
   7 O7            -2.1506     1.7126     0.2882 O.2     
   8 O8            -0.8739     3.5040     0.5822 O.3     
   9 C9            -1.0521    -0.6815     0.9047 C.3     
  10 N10           -0.8422    -0.2404     2.2859 N.pl3   
  11 C11           -1.7546    -0.5918     3.2739 C.ar    
  12 C12           -2.8650    -1.3628     2.9444 C.ar    
  13 C13           -3.7646    -1.7052     3.9374 C.ar    
  14 C14           -3.5230    -1.2636     5.2317 C.ar    
  15 C15           -2.4009    -0.5017     5.4877 C.ar    
  16 N16           -1.5563    -0.1946     4.5212 N.ar    
  17 O17            3.5255     0.7196     0.6643 O.3     
  18 C18            4.6461     1.2020    -0.0798 C.3     
  19 C19            5.8521     1.2778     0.8208 C.2     
  20 N20            7.0319     1.7088     0.3322 N.am    
  21 O21            5.7609     0.9509     1.9851 O.2     
  22 C22            8.2042     1.7825     1.2076 C.3     
  23 C23            9.4040     2.2989     0.4109 C.3     
  24 C24           10.6368     2.2588     1.2767 C.2     
  25 O25           11.5879     1.5925     0.9431 O.2     
  26 O26           10.6783     2.9632     2.4186 O.3     
  27 N27            9.6076     1.4537    -0.7682 N.am    
  28 C28           10.2298     1.9518    -1.8550 C.2     
  29 O29           10.6221     3.1024    -1.8570 O.2     
  30 C30           10.8213    -0.5006    -5.2753 C.ar    
  31 C31           11.2713     0.8199    -5.2782 C.ar    
  32 C32           11.0800     1.6152    -4.1709 C.ar    
  33 C33           10.4351     1.0995    -3.0440 C.ar    
  34 C34            9.9850    -0.2231    -3.0422 C.ar    
  35 C35           10.1773    -1.0166    -4.1506 C.ar    
  36 C36           11.0229    -1.3545    -6.4706 C.ar    
  37 C37           10.5745    -2.6745    -6.4711 C.ar    
  38 C38           10.7649    -3.4646    -7.5864 C.ar    
  39 C39           11.3993    -2.9491    -8.7024 C.ar    
  40 C40           11.8468    -1.6401    -8.7074 C.ar    
  41 C41           11.6564    -0.8388    -7.6002 C.ar    
  42 C42           -2.0796     4.2922     0.7649 C.3     
  43 C43           -1.7060     5.7297     1.0205 C.ar    
  44 C44           -1.5702     6.6073    -0.0389 C.ar    
  45 C45           -1.2275     7.9258     0.1955 C.ar    
  46 C46           -1.0210     8.3668     1.4893 C.ar    
  47 C47           -1.1577     7.4894     2.5487 C.ar    
  48 C48           -1.5046     6.1719     2.3146 C.ar    
  49 H49           -0.1602    -0.3301    -1.0378 H       
  50 H50            1.4976    -0.6018     1.5295 H       
  51 H51            1.6863    -1.4869    -0.0214 H       
  52 H52            2.5496     0.4540    -1.1557 H       
  53 H53            1.5624     2.5337    -0.7582 H       
  54 H54            1.7111     2.3693     1.0138 H       
  55 H55           -2.0379    -0.3618     0.5670 H       
  56 H56           -0.9863    -1.7684     0.8564 H       
  57 H57           -0.0666     0.2970     2.5108 H       
  58 H58           -3.0223    -1.6890     1.9269 H       
  59 H59           -4.6357    -2.3023     3.7113 H       
  60 H60           -4.2064    -1.5134     6.0298 H       
  61 H61           -2.2091    -0.1562     6.4929 H       
  62 H62            4.8524     0.5229    -0.9070 H       
  63 H63            4.4222     2.1943    -0.4715 H       
  64 H64            7.1048     1.9703    -0.5990 H       
  65 H65            7.9979     2.4616     2.0349 H       
  66 H66            8.4281     0.7902     1.5993 H       
  67 H67            9.2156     3.3248     0.0944 H       
  68 H68           11.4903     2.9061     2.9404 H       
  69 H69            9.2947     0.5356    -0.7667 H       
  70 H70           11.7698     1.2184    -6.1494 H       
  71 H71           11.4291     2.6373    -4.1731 H       
  72 H72            9.4866    -0.6229    -2.1714 H       
  73 H73            9.8293    -2.0390    -4.1494 H       
  74 H74           10.0794    -3.0781    -5.6003 H       
  75 H75           10.4183    -4.4874    -7.5878 H       
  76 H76           11.5462    -3.5711    -9.5730 H       
  77 H77           12.3420    -1.2432    -9.5813 H       
  78 H78           12.0018     0.1845    -7.6070 H       
  79 H79           -2.6936     4.2306    -0.1335 H       
  80 H80           -2.6407     3.9059     1.6158 H       
  81 H81           -1.7315     6.2628    -1.0496 H       
  82 H82           -1.1207     8.6114    -0.6322 H       
  83 H83           -0.7525     9.3968     1.6723 H       
  84 H84           -0.9960     7.8338     3.5594 H       
  85 H85           -1.6150     5.4873     3.1425 H       
@<TRIPOS>BOND
   1    1    2 1
   2    1    5 1
   3    1    6 am
   4    2    3 1
   5    2    9 1
   6    2   49 1
   7    3    4 1
   8    3   50 1
   9    3   51 1
  10    4    5 1
  11    4   17 1
  12    4   52 1
  13    5   53 1
  14    5   54 1
  15    6    7 2
  16    6    8 1
  17    8   42 1
  18    9   10 1
  19    9   55 1
  20    9   56 1
  21   10   11 1
  22   10   57 1
  23   11   12 ar
  24   11   16 ar
  25   12   13 ar
  26   12   58 1
  27   13   14 ar
  28   13   59 1
  29   14   15 ar
  30   14   60 1
  31   15   16 ar
  32   15   61 1
  33   17   18 1
  34   18   19 1
  35   18   62 1
  36   18   63 1
  37   19   20 am
  38   19   21 2
  39   20   22 1
  40   20   64 1
  41   22   23 1
  42   22   65 1
  43   22   66 1
  44   23   24 1
  45   23   27 1
  46   23   67 1
  47   24   25 2
  48   24   26 1
  49   26   68 1
  50   27   28 am
  51   27   69 1
  52   28   29 2
  53   28   33 1
  54   30   31 ar
  55   30   35 ar
  56   30   36 1
  57   31   32 ar
  58   31   70 1
  59   32   33 ar
  60   32   71 1
  61   33   34 ar
  62   34   35 ar
  63   34   72 1
  64   35   73 1
  65   36   37 ar
  66   36   41 ar
  67   37   38 ar
  68   37   74 1
  69   38   39 ar
  70   38   75 1
  71   39   40 ar
  72   39   76 1
  73   40   41 ar
  74   40   77 1
  75   41   78 1
  76   42   43 1
  77   42   79 1
  78   42   80 1
  79   43   44 ar
  80   43   48 ar
  81   44   45 ar
  82   44   81 1
  83   45   46 ar
  84   45   82 1
  85   46   47 ar
  86   46   83 1
  87   47   48 ar
  88   47   84 1
  89   48   85 1

#	End of record

