#	Name: ASD06710014
#	Creating user name:	WinNT
#	Creation time:	15. 06. 2019 21:08

#	Modifying user name:	WinNT
#	Modification time:	15. 06. 2019 21:08

#	Program:	/corina/corina34_cracker 3.40 0067  02.08.2006

@<TRIPOS>MOLECULE
ASD06710014
  77   78    0    0    0
SMALL
NO_CHARGES


@<TRIPOS>ATOM
   1 C1            -0.0644     1.6458    -0.0323 C.ar    
   2 C2            -0.1462     0.2741     0.1580 C.ar    
   3 C3             1.0134    -0.4759     0.2900 C.ar    
   4 C4             2.2463     0.1446     0.2317 C.ar    
   5 C5             2.3251     1.5119     0.0424 C.ar    
   6 C6             1.1709     2.2616    -0.0899 C.ar    
   7 C7             3.5757     2.3346    -2.5162 C.ar    
   8 C8             3.7834     2.9668    -1.3041 C.ar    
   9 C9             3.6714     2.1863    -0.0198 C.3     
  10 C10            3.6778     3.0478    -3.6949 C.ar    
  11 C11            3.9890     4.3994    -3.6617 C.ar    
  12 C12            4.1974     5.0312    -2.4444 C.ar    
  13 C13            4.0941     4.3136    -1.2684 C.ar    
  14 O14           -1.3602    -0.3339     0.2154 O.3     
  15 O15            4.0904     5.1030    -4.8200 O.3     
  16 C16           -1.3683    -1.7491     0.4134 C.3     
  17 C17           -2.8133    -2.2506     0.4507 C.3     
  18 O18           -3.4223    -2.0440    -0.8254 O.3     
  19 C19           -2.8267    -3.7432     0.7864 C.3     
  20 O20           -4.1772    -4.1858     0.9359 O.3     
  21 C21           -4.3023    -5.5737     1.2523 C.3     
  22 C22            4.4138     6.4906    -4.7098 C.3     
  23 C23            4.4837     7.1104    -6.1069 C.3     
  24 C24            4.7064     8.6192    -5.9849 C.3     
  25 O25            4.6555     9.2147    -7.2830 O.3     
  26 O26            5.5667     6.5263    -6.8335 O.3     
  27 C27           -5.7830    -5.9343     1.3881 C.3     
  28 O28           -6.4300    -5.7749     0.1240 O.3     
  29 C29           -7.8242    -6.0879     0.1411 C.3     
  30 C30           -8.4101    -5.8828    -1.2573 C.3     
  31 C31           -9.9029    -6.2179    -1.2390 C.3     
  32 C32            4.8528    10.6300    -7.2813 C.3     
  33 C33            3.8209     3.1372     1.1695 C.3     
  34 C34          -10.4888    -6.0128    -2.6374 C.3     
  35 C35            4.7749     1.1278     0.0317 C.3     
  36 H36           -0.9656     2.2312    -0.1398 H       
  37 H37            0.9524    -1.5439     0.4385 H       
  38 H38            3.1494    -0.4389     0.3344 H       
  39 H39            1.2351     3.3295    -0.2376 H       
  40 H40            3.3378     1.2815    -2.5416 H       
  41 H41            3.5158     2.5535    -4.6414 H       
  42 H42            4.4401     6.0832    -2.4160 H       
  43 H43            4.2559     4.8050    -0.3205 H       
  44 H44           -0.8366    -2.2336    -0.4054 H       
  45 H45           -0.8768    -1.9868     1.3569 H       
  46 H46           -3.3688    -1.7021     1.2114 H       
  47 H47           -2.9793    -2.5038    -1.5517 H       
  48 H48           -2.3485    -4.3011    -0.0187 H       
  49 H49           -2.2842    -3.9112     1.7168 H       
  50 H50           -3.8548    -6.1695     0.4568 H       
  51 H51           -3.7905    -5.7797     2.1923 H       
  52 H52            3.6459     6.9974    -4.1255 H       
  53 H53            5.3787     6.6006    -4.2149 H       
  54 H54            3.5488     6.9226    -6.6349 H       
  55 H55            3.9282     9.0516    -5.3561 H       
  56 H56            5.6820     8.8074    -5.5368 H       
  57 H57            6.4318     6.6546    -6.4209 H       
  58 H58           -5.8762    -6.9697     1.7160 H       
  59 H59           -6.2511    -5.2775     2.1213 H       
  60 H60           -7.9598    -7.1264     0.4431 H       
  61 H61           -8.3347    -5.4342     0.8484 H       
  62 H62           -8.2746    -4.8442    -1.5593 H       
  63 H63           -7.8997    -6.5364    -1.9646 H       
  64 H64          -10.0384    -7.2564    -0.9370 H       
  65 H65          -10.4133    -5.5642    -0.5317 H       
  66 H66            5.8314    10.8599    -6.8601 H       
  67 H67            4.7997    11.0054    -8.3032 H       
  68 H68            4.0776    11.1042    -6.6793 H       
  69 H69            3.0347     3.8913     1.1328 H       
  70 H70            3.7398     2.5728     2.0984 H       
  71 H71            4.7946     3.6250     1.1245 H       
  72 H72          -10.3532    -4.9742    -2.9394 H       
  73 H73           -9.9783    -6.6664    -3.3447 H       
  74 H74          -11.5522    -6.2515    -2.6244 H       
  75 H75            5.7487     1.6157    -0.0133 H       
  76 H76            4.6939     0.5634     0.9606 H       
  77 H77            4.6684     0.4504    -0.8156 H       
@<TRIPOS>BOND
   1    1    2 ar
   2    1    6 ar
   3    1   36 1
   4    2    3 ar
   5    2   14 1
   6    3    4 ar
   7    3   37 1
   8    4    5 ar
   9    4   38 1
  10    5    6 ar
  11    5    9 1
  12    6   39 1
  13    7    8 ar
  14    7   10 ar
  15    7   40 1
  16    8    9 1
  17    8   13 ar
  18    9   33 1
  19    9   35 1
  20   10   11 ar
  21   10   41 1
  22   11   12 ar
  23   11   15 1
  24   12   13 ar
  25   12   42 1
  26   13   43 1
  27   14   16 1
  28   15   22 1
  29   16   17 1
  30   16   44 1
  31   16   45 1
  32   17   18 1
  33   17   19 1
  34   17   46 1
  35   18   47 1
  36   19   20 1
  37   19   48 1
  38   19   49 1
  39   20   21 1
  40   21   27 1
  41   21   50 1
  42   21   51 1
  43   22   23 1
  44   22   52 1
  45   22   53 1
  46   23   24 1
  47   23   26 1
  48   23   54 1
  49   24   25 1
  50   24   55 1
  51   24   56 1
  52   25   32 1
  53   26   57 1
  54   27   28 1
  55   27   58 1
  56   27   59 1
  57   28   29 1
  58   29   30 1
  59   29   60 1
  60   29   61 1
  61   30   31 1
  62   30   62 1
  63   30   63 1
  64   31   34 1
  65   31   64 1
  66   31   65 1
  67   32   66 1
  68   32   67 1
  69   32   68 1
  70   33   69 1
  71   33   70 1
  72   33   71 1
  73   34   72 1
  74   34   73 1
  75   34   74 1
  76   35   75 1
  77   35   76 1
  78   35   77 1

#	End of record

