#	Name: ASD01028031
#	Creating user name:	WinNT
#	Creation time:	15. 06. 2019 18:56

#	Modifying user name:	WinNT
#	Modification time:	15. 06. 2019 18:56

#	Program:	/corina/corina34_cracker 3.40 0067  02.08.2006

@<TRIPOS>MOLECULE
ASD01028031
  64   68    0    0    0
SMALL
NO_CHARGES


@<TRIPOS>ATOM
   1 C1             0.0451     1.7796    -0.1850 C.3     
   2 C2             0.0637     0.2545    -0.3216 C.3     
   3 C3            -1.0792    -0.3405     0.5062 C.3     
   4 O4             0.9434     3.0940     1.8886 O.2     
   5 C5             1.8070     2.8371     1.0687 C.2     
   6 N6             1.4477     2.2648    -0.1221 N.am    
   7 C7             5.0287     2.5927     2.7635 C.3     
   8 N8             3.5693     2.9952     2.8072 N.3     
   9 C9             3.2405     3.1650     1.3513 C.3     
  10 N10            1.9898    -0.5070     4.4587 N.pl3   
  11 C11            2.7052     0.3446     5.3173 C.ar    
  12 C12            3.1348     1.5447     4.7460 C.ar    
  13 C13            2.8720     1.7662     3.2811 C.3     
  14 C14            3.0164     0.0517     6.6316 C.ar    
  15 C15            3.6768     0.9986     7.4067 C.ar    
  16 C16            4.0309     2.2244     6.8547 C.ar    
  17 C17            3.7604     2.4888     5.5259 C.ar    
  18 O18           -0.9025    -1.7541     0.6185 O.3     
  19 C19           -0.7327    -2.2692     1.8644 C.ar    
  20 C20            0.2002    -1.7061     2.6936 C.ar    
  21 C21            0.3788    -2.2150     3.9843 C.ar    
  22 C22            1.3002    -1.6254     4.8966 C.ar    
  23 N23            1.4309    -2.1790     6.0799 N.ar    
  24 O24            2.8164    -1.0624     7.3923 O.3     
  25 C25            3.4274    -0.8495     8.6684 C.3     
  26 O26            3.8713     0.5108     8.6649 O.3     
  27 C27           -1.4961    -3.3648     2.2941 C.ar    
  28 C28           -1.3211    -3.8927     3.5536 C.ar    
  29 C29           -0.3750    -3.3301     4.4192 C.ar    
  30 N30           -0.1592    -3.8134     5.6531 N.ar    
  31 C31            0.7225    -3.2394     6.4371 C.ar    
  32 C32            4.1798     2.2699     0.5442 C.3     
  33 C33            3.5037     4.6320     0.9897 C.3     
  34 O34           -2.4167    -3.9070     1.4555 O.3     
  35 C35           -3.1651    -5.0210     1.9464 C.3     
  36 H36           -0.4566     2.2193    -1.0465 H       
  37 H37           -0.4868     2.0529     0.7248 H       
  38 H38           -0.0602    -0.0171    -1.3695 H       
  39 H39            1.0145    -0.1346     0.0463 H       
  40 H40           -1.0869     0.1091     1.4989 H       
  41 H41           -2.0286    -0.1373     0.0060 H       
  42 H42            2.0398     2.1851    -0.8881 H       
  43 H43            5.5888     3.3201     2.1759 H       
  44 H44            5.4273     2.5604     3.7775 H       
  45 H45            5.1204     1.6078     2.3056 H       
  46 H46            1.9913    -0.3079     3.5050 H       
  47 H47            1.8088     1.8871     3.1376 H       
  48 H48            3.2452     0.9220     2.7195 H       
  49 H49            4.5023     2.9744     7.4687 H       
  50 H50            4.0213     3.4523     5.1143 H       
  51 H51            0.7955    -0.8770     2.3441 H       
  52 H52            2.6933    -0.9922     9.4635 H       
  53 H53            4.2657    -1.5304     8.8073 H       
  54 H54           -1.9199    -4.7325     3.8749 H       
  55 H55            0.8770    -3.6547     7.4215 H       
  56 H56            4.0373     1.2312     0.8425 H       
  57 H57            3.9596     2.3763    -0.5180 H       
  58 H58            5.2124     2.5636     0.7325 H       
  59 H59            4.5514     4.8694     1.1745 H       
  60 H60            3.2750     4.7933    -0.0638 H       
  61 H61            2.8719     5.2760     1.6014 H       
  62 H62           -3.8629    -5.3565     1.1792 H       
  63 H63           -2.4838    -5.8337     2.1983 H       
  64 H64           -3.7193    -4.7226     2.8363 H       
@<TRIPOS>BOND
   1    1    2 1
   2    1    6 1
   3    1   36 1
   4    1   37 1
   5    2    3 1
   6    2   38 1
   7    2   39 1
   8    3   18 1
   9    3   40 1
  10    3   41 1
  11    4    5 2
  12    5    6 am
  13    5    9 1
  14    6   42 1
  15    7    8 1
  16    7   43 1
  17    7   44 1
  18    7   45 1
  19    8    9 1
  20    8   13 1
  21    9   32 1
  22    9   33 1
  23   10   11 1
  24   10   22 1
  25   10   46 1
  26   11   12 ar
  27   11   14 ar
  28   12   13 1
  29   12   17 ar
  30   13   47 1
  31   13   48 1
  32   14   15 ar
  33   14   24 1
  34   15   16 ar
  35   15   26 1
  36   16   17 ar
  37   16   49 1
  38   17   50 1
  39   18   19 1
  40   19   20 ar
  41   19   27 ar
  42   20   21 ar
  43   20   51 1
  44   21   22 ar
  45   21   29 ar
  46   22   23 ar
  47   23   31 ar
  48   24   25 1
  49   25   26 1
  50   25   52 1
  51   25   53 1
  52   27   28 ar
  53   27   34 1
  54   28   29 ar
  55   28   54 1
  56   29   30 ar
  57   30   31 ar
  58   31   55 1
  59   32   56 1
  60   32   57 1
  61   32   58 1
  62   33   59 1
  63   33   60 1
  64   33   61 1
  65   34   35 1
  66   35   62 1
  67   35   63 1
  68   35   64 1

#	End of record

