#	Name: ASD01918029
#	Creating user name:	WinNT
#	Creation time:	15. 06. 2019 20:10

#	Modifying user name:	WinNT
#	Modification time:	15. 06. 2019 20:10

#	Program:	/corina/corina34_cracker 3.40 0067  02.08.2006

@<TRIPOS>MOLECULE
ASD01918029
  38   40    0    0    0
SMALL
NO_CHARGES


@<TRIPOS>ATOM
   1 C1            -0.0185     1.5107     0.0103 C.2     
   2 C2             0.0021    -0.0041     0.0020 C.3     
   3 C3             1.0989    -0.4521     0.9771 C.3     
   4 C4             2.4567     0.0192     0.4639 C.3     
   5 C5             2.4623     1.5048     0.2213 C.ar    
   6 C6             1.2758     2.2112     0.0018 C.ar    
   7 N7             3.6153     2.1459     0.2162 N.ar    
   8 C8             3.6900     3.4570     0.0041 C.ar    
   9 C9             2.5380     4.2185    -0.2251 C.ar    
  10 C10            1.3191     3.5955    -0.2271 C.ar    
  11 C11           -1.3538    -0.5454     0.4597 C.3     
  12 C12            0.3183    -0.5124    -1.4060 C.3     
  13 O13           -1.0647     2.1245     0.0187 O.2     
  14 C14            4.9695     4.0998     0.0107 C.1     
  15 C15            6.0186     4.6269     0.0161 C.1     
  16 C16            7.2982     5.2697     0.0228 C.ar    
  17 C17            8.4585     4.5224     0.2448 C.ar    
  18 C18            7.3936     6.6467    -0.1985 C.ar    
  19 C19            8.6295     7.2586    -0.1911 C.ar    
  20 C20            9.7733     6.5130     0.0347 C.ar    
  21 C21            9.6872     5.1485     0.2493 C.ar    
  22 H22            0.9112    -0.0187     1.9595 H       
  23 H23            1.0962    -1.5394     1.0526 H       
  24 H24            3.2215    -0.2252     1.2010 H       
  25 H25            2.6840    -0.4959    -0.4694 H       
  26 H26            2.6098     5.2822    -0.3975 H       
  27 H27            0.4123     4.1557    -0.4010 H       
  28 H28           -2.1328    -0.1925    -0.2162 H       
  29 H29           -1.3316    -1.6351     0.4512 H       
  30 H30           -1.5630    -0.1941     1.4701 H       
  31 H31            1.2935    -0.1378    -1.7171 H       
  32 H32            0.3314    -1.6023    -1.4044 H       
  33 H33           -0.4448    -0.1593    -2.0997 H       
  34 H34            8.3929     3.4576     0.4128 H       
  35 H35            6.5019     7.2298    -0.3752 H       
  36 H36            8.7049     8.3223    -0.3623 H       
  37 H37           10.7384     6.9978     0.0393 H       
  38 H38           10.5846     4.5726     0.4207 H       
@<TRIPOS>BOND
   1    1    2 1
   2    1    6 1
   3    1   13 2
   4    2    3 1
   5    2   11 1
   6    2   12 1
   7    3    4 1
   8    3   22 1
   9    3   23 1
  10    4    5 1
  11    4   24 1
  12    4   25 1
  13    5    7 ar
  14    5    6 ar
  15    6   10 ar
  16    7    8 ar
  17    8    9 ar
  18    8   14 1
  19    9   10 ar
  20    9   26 1
  21   10   27 1
  22   11   28 1
  23   11   29 1
  24   11   30 1
  25   12   31 1
  26   12   32 1
  27   12   33 1
  28   14   15 3
  29   15   16 1
  30   16   18 ar
  31   16   17 ar
  32   17   21 ar
  33   17   34 1
  34   18   19 ar
  35   18   35 1
  36   19   20 ar
  37   19   36 1
  38   20   21 ar
  39   20   37 1
  40   21   38 1

#	End of record

