#	Name: ASD01880827
#	Creating user name:	WinNT
#	Creation time:	15. 06. 2019 19:41

#	Modifying user name:	WinNT
#	Modification time:	15. 06. 2019 19:41

#	Program:	/corina/corina34_cracker 3.40 0067  02.08.2006

@<TRIPOS>MOLECULE
ASD01880827
  62   64    0    0    0
SMALL
NO_CHARGES


@<TRIPOS>ATOM
   1 N1            -0.0158     1.3136     0.0093 N.ar    
   2 C2             0.0021    -0.0041     0.0020 C.ar    
   3 N3             1.1321    -0.6824    -0.0120 N.ar    
   4 C4             2.2981    -0.0570    -0.0197 C.ar    
   5 C5             2.3199     1.3290    -0.0130 C.ar    
   6 C6             1.1114     2.0071     0.0022 C.ar    
   7 C7             3.6262     2.0803    -0.0209 C.3     
   8 O8             4.0270     2.3245    -1.3706 O.3     
   9 C9             5.1917     2.9962    -1.5555 C.ar    
  10 C10            5.6406     3.2675    -2.8444 C.ar    
  11 C11            6.8186     3.9473    -3.0300 C.ar    
  12 C12            7.5727     4.3703    -1.9303 C.ar    
  13 C13            7.1171     4.0955    -0.6379 C.ar    
  14 C14            5.9321     3.4174    -0.4574 C.ar    
  15 C15            7.5713     4.3929    -4.2590 C.3     
  16 N16            8.7743     5.0803    -3.7758 N.am    
  17 C17            8.7710     5.0650    -2.4319 C.2     
  18 O18            9.6342     5.5552    -1.7298 O.2     
  19 C19            7.5607     5.9926     0.8962 C.3     
  20 C20            7.9191     4.5445     0.5563 C.3     
  21 C21            4.0074    -1.0994    -1.4829 C.3     
  22 C22            3.5851    -0.8409    -0.0352 C.3     
  23 C23            1.0260     5.5601    -1.4228 C.3     
  24 C24            1.0567     4.0304    -1.4303 C.3     
  25 C25            1.0812     3.5137     0.0096 C.3     
  26 C26            9.4496     7.1440    -4.9012 C.3     
  27 C27            9.8088     5.6837    -4.6195 C.3     
  28 C28           -1.7602    -1.0018    -1.4291 C.3     
  29 C29           -1.3043    -0.7553     0.0105 C.3     
  30 H30            3.5022     3.0303     0.4989 H       
  31 H31            4.3894     1.4874     0.4831 H       
  32 H32            5.0631     2.9433    -3.6975 H       
  33 H33            5.5804     3.2058     0.5416 H       
  34 H34            7.8503     3.5284    -4.8614 H       
  35 H35            6.9588     5.0773    -4.8459 H       
  36 H36            6.4974     6.0591     1.1268 H       
  37 H37            8.1408     6.3173     1.7600 H       
  38 H38            7.7884     6.6329     0.0440 H       
  39 H39            7.6914     3.9042     1.4085 H       
  40 H40            8.9824     4.4779     0.3257 H       
  41 H41            3.2295    -1.6681    -1.9923 H       
  42 H42            4.1554    -0.1479    -1.9937 H       
  43 H43            4.9383    -1.6664    -1.4941 H       
  44 H44            4.3631    -0.2722     0.4741 H       
  45 H45            3.4372    -1.7924     0.4755 H       
  46 H46            1.9136     5.9388    -0.9159 H       
  47 H47            1.0085     5.9282    -2.4486 H       
  48 H48            0.1340     5.9030    -0.8984 H       
  49 H49            0.1691     3.6517    -1.9371 H       
  50 H50            1.9486     3.6875    -1.9546 H       
  51 H51            0.1893     3.8567     0.5340 H       
  52 H52            1.9688     3.8925     0.5165 H       
  53 H53           10.2194     7.5930    -5.5289 H       
  54 H54            8.4895     7.1894    -5.4152 H       
  55 H55            9.3841     7.6901    -3.9601 H       
  56 H56           10.7690     5.6384    -4.1055 H       
  57 H57            9.8743     5.1377    -5.5606 H       
  58 H58           -2.7050    -1.5452    -1.4230 H       
  59 H59           -1.8937    -0.0465    -1.9366 H       
  60 H60           -1.0065    -1.5894    -1.9533 H       
  61 H61           -1.1707    -1.7107     0.5179 H       
  62 H62           -2.0580    -0.1677     0.5347 H       
@<TRIPOS>BOND
   1    1    2 ar
   2    1    6 ar
   3    2    3 ar
   4    2   29 1
   5    3    4 ar
   6    4    5 ar
   7    4   22 1
   8    5    6 ar
   9    5    7 1
  10    6   25 1
  11    7    8 1
  12    7   30 1
  13    7   31 1
  14    8    9 1
  15    9   10 ar
  16    9   14 ar
  17   10   11 ar
  18   10   32 1
  19   11   12 ar
  20   11   15 1
  21   12   13 ar
  22   12   17 1
  23   13   14 ar
  24   13   20 1
  25   14   33 1
  26   15   16 1
  27   15   34 1
  28   15   35 1
  29   16   17 am
  30   16   27 1
  31   17   18 2
  32   19   20 1
  33   19   36 1
  34   19   37 1
  35   19   38 1
  36   20   39 1
  37   20   40 1
  38   21   22 1
  39   21   41 1
  40   21   42 1
  41   21   43 1
  42   22   44 1
  43   22   45 1
  44   23   24 1
  45   23   46 1
  46   23   47 1
  47   23   48 1
  48   24   25 1
  49   24   49 1
  50   24   50 1
  51   25   51 1
  52   25   52 1
  53   26   27 1
  54   26   53 1
  55   26   54 1
  56   26   55 1
  57   27   56 1
  58   27   57 1
  59   28   29 1
  60   28   58 1
  61   28   59 1
  62   28   60 1
  63   29   61 1
  64   29   62 1

#	End of record

