#	Name: ASD01140411
#	Creating user name:	WinNT
#	Creation time:	15. 06. 2019 19:00

#	Modifying user name:	WinNT
#	Modification time:	15. 06. 2019 19:00

#	Program:	/corina/corina34_cracker 3.40 0067  02.08.2006

@<TRIPOS>MOLECULE
ASD01140411
  37   41    0    0    0
SMALL
NO_CHARGES


@<TRIPOS>ATOM
   1 C1            -0.0170     1.4030     0.0098 C.2     
   2 C2             0.0021    -0.0041     0.0020 C.2     
   3 C3             1.1978    -0.6510    -0.0129 C.2     
   4 C4             2.4012     0.0858    -0.0204 C.2     
   5 N5             2.3843     1.4010    -0.0132 N.2     
   6 N6             1.1718     2.0928     0.0021 N.pl3   
   7 N7            -0.4807     3.4867     0.0225 N.2     
   8 N8            -0.9880     2.3040     0.0186 N.2     
   9 C9             0.8373     3.4155     0.0119 C.2     
  10 N10            7.4347    -2.3974    -0.0797 N.pl3   
  11 C11            8.2483    -1.2972    -0.0820 C.2     
  12 C12            7.5063    -0.1789    -0.0699 C.2     
  13 C13            6.1021    -0.5975    -0.0589 C.ar    
  14 C14            4.8876     0.0876    -0.0437 C.ar    
  15 C15            3.6997    -0.6308    -0.0362 C.ar    
  16 C16            3.7255    -2.0298    -0.0430 C.ar    
  17 C17            4.9114    -2.7046    -0.0575 C.ar    
  18 C18            6.1154    -2.0051    -0.0657 C.ar    
  19 C19            1.7762     4.5565     0.0089 C.ar    
  20 C20            1.2892     5.8662     0.0201 C.ar    
  21 C21            2.1725     6.9271     0.0177 C.ar    
  22 C22            3.5365     6.6953     0.0037 C.ar    
  23 C23            4.0248     5.4009    -0.0079 C.ar    
  24 C24            3.1535     4.3310     0.0007 C.ar    
  25 Cl25          -0.4219     6.1584     0.0365 Cl      
  26 H26           -0.9219    -0.5633     0.0082 H       
  27 H27            1.2266    -1.7306    -0.0186 H       
  28 H28            7.7420    -3.3174    -0.0905 H       
  29 H29            9.3279    -1.3247    -0.0921 H       
  30 H30            7.8742     0.8365    -0.0682 H       
  31 H31            4.8713     1.1674    -0.0372 H       
  32 H32            2.7969    -2.5813    -0.0364 H       
  33 H33            4.9163    -3.7845    -0.0623 H       
  34 H34            1.7981     7.9401     0.0263 H       
  35 H35            4.2233     7.5288     0.0015 H       
  36 H36            5.0907     5.2274    -0.0195 H       
  37 H37            3.5365     3.3212    -0.0035 H       
@<TRIPOS>BOND
   1    1    2 1
   2    1    6 1
   3    1    8 2
   4    2    3 2
   5    2   26 1
   6    3    4 1
   7    3   27 1
   8    4    5 2
   9    4   15 1
  10    5    6 1
  11    6    9 1
  12    7    8 1
  13    7    9 2
  14    9   19 1
  15   10   11 1
  16   10   18 1
  17   10   28 1
  18   11   12 2
  19   11   29 1
  20   12   13 1
  21   12   30 1
  22   13   14 ar
  23   13   18 ar
  24   14   15 ar
  25   14   31 1
  26   15   16 ar
  27   16   17 ar
  28   16   32 1
  29   17   18 ar
  30   17   33 1
  31   19   20 ar
  32   19   24 ar
  33   20   21 ar
  34   20   25 1
  35   21   22 ar
  36   21   34 1
  37   22   23 ar
  38   22   35 1
  39   23   24 ar
  40   23   36 1
  41   24   37 1

#	End of record

