#	Name: ASD07930239
#	Creating user name:	WinNT
#	Creation time:	15. 06. 2019 21:12

#	Modifying user name:	WinNT
#	Modification time:	15. 06. 2019 21:12

#	Program:	/corina/corina34_cracker 3.40 0067  02.08.2006

@<TRIPOS>MOLECULE
ASD07930239
  56   60    0    0    0
SMALL
NO_CHARGES


@<TRIPOS>ATOM
   1 C1             0.0527     0.7330    -0.3287 C.2     
   2 C2             0.2080    -0.6261    -0.3328 C.2     
   3 C3             1.5618    -1.1827    -0.2750 C.2     
   4 N4             2.6145    -0.3485    -0.2179 N.am    
   5 C5             2.4322     1.0160    -0.2170 C.2     
   6 C6             1.1842     1.5561    -0.2702 C.2     
   7 C7             3.9852    -0.8732    -0.1528 C.3     
   8 C8             4.8735     0.0036    -1.0479 C.3     
   9 N9             4.8191     1.3852    -0.5491 N.am    
  10 C10            3.6246     1.8902    -0.1583 C.2     
  11 C11            6.0340     2.2005    -0.4759 C.3     
  12 O12            3.5340     3.0380     0.2325 O.2     
  13 O13            1.7322    -2.3900    -0.2784 O.2     
  14 N14           -0.9056    -1.4689    -0.3905 N.pl3   
  15 C15           -1.2256    -2.3168    -1.4033 C.2     
  16 N16           -2.3338    -2.9330    -1.0946 N.2     
  17 C17           -2.7580    -2.5107     0.1060 C.2     
  18 C18           -1.8787    -1.6010     0.5668 C.2     
  19 C19           -4.0008    -2.9782     0.8187 C.3     
  20 C20            6.2945     2.8509    -1.8361 C.3     
  21 O21            5.2522     3.7849    -2.1248 O.3     
  22 C22            5.3773     4.5163    -3.2627 C.ar    
  23 C23            4.4579     5.5324    -3.5496 C.ar    
  24 C24            6.4183     4.2635    -4.1406 C.ar    
  25 C25            6.5450     5.0088    -5.2981 C.ar    
  26 C26            5.6356     6.0106    -5.5874 C.ar    
  27 C27            4.5958     6.2776    -4.7201 C.ar    
  28 C28            3.3460     5.8137    -2.6164 C.2     
  29 C29            2.0061     5.9336    -2.9117 C.2     
  30 C30            1.2088     6.1991    -1.8254 C.2     
  31 N31            1.7694     6.3096    -0.6576 N.2     
  32 S32            3.4359     6.0649    -0.8640 S.3     
  33 C33            1.4608     5.7859    -4.3088 C.3     
  34 H34           -0.9348     1.1680    -0.3748 H       
  35 H35            1.0652     2.6295    -0.2674 H       
  36 H36            4.3459    -0.8345     0.8751 H       
  37 H37            4.0029    -1.9024    -0.5114 H       
  38 H38            5.9009    -0.3586    -1.0116 H       
  39 H39            4.5063    -0.0300    -2.0736 H       
  40 H40            5.9061     2.9762     0.2792 H       
  41 H41            6.8803     1.5682    -0.2075 H       
  42 H42           -0.6582    -2.4567    -2.3115 H       
  43 H43           -1.9331    -1.0717     1.5066 H       
  44 H44           -3.7592    -3.8373     1.4446 H       
  45 H45           -4.3873    -2.1718     1.4419 H       
  46 H46           -4.7546    -3.2637     0.0851 H       
  47 H47            7.2521     3.3709    -1.8127 H       
  48 H48            6.3173     2.0818    -2.6081 H       
  49 H49            7.1321     3.4835    -3.9205 H       
  50 H50            7.3583     4.8082    -5.9799 H       
  51 H51            5.7420     6.5884    -6.4937 H       
  52 H52            3.8879     7.0604    -4.9494 H       
  53 H53            0.1409     6.3138    -1.9387 H       
  54 H54            1.2927     4.7306    -4.5236 H       
  55 H55            0.5186     6.3278    -4.3903 H       
  56 H56            2.1768     6.1925    -5.0231 H       
@<TRIPOS>BOND
   1    1    2 2
   2    1    6 1
   3    1   34 1
   4    2    3 1
   5    2   14 1
   6    3    4 am
   7    3   13 2
   8    4    5 1
   9    4    7 1
  10    5    6 2
  11    5   10 1
  12    6   35 1
  13    7    8 1
  14    7   36 1
  15    7   37 1
  16    8    9 1
  17    8   38 1
  18    8   39 1
  19    9   10 am
  20    9   11 1
  21   10   12 2
  22   11   20 1
  23   11   40 1
  24   11   41 1
  25   14   15 1
  26   14   18 1
  27   15   16 2
  28   15   42 1
  29   16   17 1
  30   17   18 2
  31   17   19 1
  32   18   43 1
  33   19   44 1
  34   19   45 1
  35   19   46 1
  36   20   21 1
  37   20   47 1
  38   20   48 1
  39   21   22 1
  40   22   23 ar
  41   22   24 ar
  42   23   28 1
  43   23   27 ar
  44   24   25 ar
  45   24   49 1
  46   25   26 ar
  47   25   50 1
  48   26   27 ar
  49   26   51 1
  50   27   52 1
  51   28   29 2
  52   28   32 1
  53   29   30 1
  54   29   33 1
  55   30   31 2
  56   30   53 1
  57   31   32 1
  58   33   54 1
  59   33   55 1
  60   33   56 1

#	End of record

