#	Name: ASD01885115
#	Creating user name:	WinNT
#	Creation time:	15. 06. 2019 19:49

#	Modifying user name:	WinNT
#	Modification time:	15. 06. 2019 19:49

#	Program:	/corina/corina34_cracker 3.40 0067  02.08.2006

@<TRIPOS>MOLECULE
ASD01885115
  50   53    0    0    0
SMALL
NO_CHARGES


@<TRIPOS>ATOM
   1 C1            -1.5826     1.4034     1.1043 C.2     
   2 C2            -1.5994    -0.0023     1.1207 C.2     
   3 C3            -1.1844    -0.6871     0.0102 C.2     
   4 C4            -0.7489     0.0275    -1.1265 C.2     
   5 C5            -0.7411     1.3749    -1.1203 C.2     
   6 N6            -1.1583     2.0674    -0.0209 N.pl3   
   7 C7            -1.2577     3.3958     0.2716 C.2     
   8 N8            -1.7123     3.4963     1.4930 N.2     
   9 N9            -1.9125     2.3280     1.9934 N.2     
  10 C10           -0.9070     4.5389    -0.6456 C.3     
  11 Cl11          -2.1388    -0.8587     2.5311 Cl      
  12 C12           -2.1397     4.9358    -1.4604 C.3     
  13 N13           -1.1914    -2.0799     0.0024 N.pl3   
  14 F14           -3.1642     5.3309    -0.5936 F       
  15 F15           -1.8141     5.9970    -2.3119 F       
  16 F16           -2.5679     3.8423    -2.2207 F       
  17 C17           -2.4515    -2.8292     0.1210 C.3     
  18 C18           -2.5174    -3.8540    -1.0163 C.3     
  19 N19           -1.3011    -4.6776    -1.0001 N.3     
  20 C20           -0.1038    -3.8648    -1.2524 C.3     
  21 C21            0.0605    -2.8404    -0.1308 C.3     
  22 C22           -1.4003    -5.7820    -1.9637 C.3     
  23 C23           -0.0924    -6.5293    -2.0077 C.ar    
  24 C24           -2.5178    -6.7347    -1.5343 C.3     
  25 C25            0.4075    -6.9760    -3.2167 C.ar    
  26 C26            1.6071    -7.6610    -3.2583 C.ar    
  27 C27            2.3082    -7.8998    -2.0885 C.ar    
  28 C28            1.8066    -7.4519    -0.8782 C.ar    
  29 C29            0.6094    -6.7625    -0.8397 C.ar    
  30 F30            3.4808    -8.5698    -2.1279 F       
  31 H31           -0.4202    -0.5080    -2.0049 H       
  32 H32           -0.4060     1.9120    -1.9953 H       
  33 H33           -0.5733     5.3909    -0.0532 H       
  34 H34           -0.1087     4.2311    -1.3210 H       
  35 H35           -2.4818    -3.3449     1.0808 H       
  36 H36           -3.2944    -2.1424     0.0444 H       
  37 H37           -3.3906    -4.4921    -0.8808 H       
  38 H38           -2.5915    -3.3334    -1.9711 H       
  39 H39            0.7735    -4.5108    -1.2881 H       
  40 H40           -0.2114    -3.3441    -2.2039 H       
  41 H41            0.8775    -2.1611    -0.3739 H       
  42 H42            0.2762    -3.3572     0.8043 H       
  43 H43           -1.6238    -5.3822    -2.9528 H       
  44 H44           -3.4638    -6.1942    -1.5025 H       
  45 H45           -2.5914    -7.5541    -2.2492 H       
  46 H46           -2.2944    -7.1345    -0.5452 H       
  47 H47           -0.1398    -6.7900    -4.1290 H       
  48 H48            1.9972    -8.0103    -4.2029 H       
  49 H49            2.3526    -7.6376     0.0349 H       
  50 H50            0.2200    -6.4094     0.1037 H       
@<TRIPOS>BOND
   1    1    2 1
   2    1    9 2
   3    1    6 1
   4    2    3 2
   5    2   11 1
   6    3    4 1
   7    3   13 1
   8    4    5 2
   9    4   31 1
  10    5    6 1
  11    5   32 1
  12    6    7 1
  13    7    8 2
  14    7   10 1
  15    8    9 1
  16   10   12 1
  17   10   33 1
  18   10   34 1
  19   12   14 1
  20   12   15 1
  21   12   16 1
  22   13   17 1
  23   13   21 1
  24   17   18 1
  25   17   35 1
  26   17   36 1
  27   18   19 1
  28   18   37 1
  29   18   38 1
  30   19   20 1
  31   19   22 1
  32   20   21 1
  33   20   39 1
  34   20   40 1
  35   21   41 1
  36   21   42 1
  37   22   23 1
  38   22   24 1
  39   22   43 1
  40   23   25 ar
  41   23   29 ar
  42   24   44 1
  43   24   45 1
  44   24   46 1
  45   25   26 ar
  46   25   47 1
  47   26   27 ar
  48   26   48 1
  49   27   28 ar
  50   27   30 1
  51   28   29 ar
  52   28   49 1
  53   29   50 1

#	End of record

