#	Name: ASD03330007
#	Creating user name:	WinNT
#	Creation time:	15. 06. 2019 20:36

#	Modifying user name:	WinNT
#	Modification time:	15. 06. 2019 20:36

#	Program:	/corina/corina34_cracker 3.40 0067  02.08.2006

@<TRIPOS>MOLECULE
ASD03330007
  43   45    0    0    0
SMALL
NO_CHARGES


@<TRIPOS>ATOM
   1 C1            -0.0168     1.3858     0.0097 C.ar    
   2 C2             0.0021    -0.0041     0.0020 C.ar    
   3 C3            -1.1730    -0.7218     0.0098 C.ar    
   4 C4            -2.3932    -0.0523     0.0256 C.ar    
   5 C5            -2.4102     1.3565     0.0333 C.ar    
   6 C6            -1.2015     2.0647     0.0303 C.ar    
   7 N7            -3.7003    -0.4793     0.0370 N.pl3   
   8 C8            -4.5293     0.6262     0.0516 C.2     
   9 C9            -3.7690     1.7532     0.0497 C.2     
  10 C10           -5.9977     0.5895     0.0664 C.2     
  11 O11           -6.6316     1.6268     0.0783 O.2     
  12 O12           -6.6426    -0.5948     0.0669 O.3     
  13 C13           -8.0939    -0.5551     0.0819 C.3     
  14 C14           -8.6433    -1.9831     0.0802 C.3     
  15 C15          -10.1496    -1.9418     0.0958 C.ar    
  16 C16          -10.8527    -1.9167    -1.0942 C.ar    
  17 C17          -12.2345    -1.8789    -1.0799 C.ar    
  18 C18          -12.9132    -1.8666     0.1243 C.ar    
  19 C19          -12.2101    -1.8926     1.3143 C.ar    
  20 C20          -10.8284    -1.9348     1.2999 C.ar    
  21 Cl21           1.4793     2.2664     0.0001 Cl      
  22 C22           -4.4390     3.6419     1.5101 C.3     
  23 C23           -4.2808     3.1705     0.0631 C.3     
  24 N24          -14.3927    -1.8250     0.1397 N.pl3   
  25 O25          -15.0121    -1.8017    -0.9088 O.2     
  26 O26          -14.9907    -1.8142     1.2007 O.2     
  27 H27            0.9475    -0.5260    -0.0105 H       
  28 H28           -1.1480    -1.8015     0.0034 H       
  29 H29           -1.2066     3.1447     0.0362 H       
  30 H30           -3.9923    -1.4043     0.0348 H       
  31 H31           -8.4340    -0.0361     0.9781 H       
  32 H32           -8.4521    -0.0269    -0.8017 H       
  33 H33           -8.3033    -2.5020    -0.8160 H       
  34 H34           -8.2851    -2.5112     0.9638 H       
  35 H35          -10.3225    -1.9264    -2.0350 H       
  36 H36          -12.7838    -1.8586    -2.0095 H       
  37 H37          -12.7403    -1.8825     2.2551 H       
  38 H38          -10.2791    -1.9551     2.2296 H       
  39 H39           -5.1473     2.9949     2.0276 H       
  40 H40           -3.4733     3.5996     2.0136 H       
  41 H41           -4.8093     4.6671     1.5198 H       
  42 H42           -3.5726     3.8175    -0.4544 H       
  43 H43           -5.2466     3.2128    -0.4404 H       
@<TRIPOS>BOND
   1    1    2 ar
   2    1   21 1
   3    1    6 ar
   4    2    3 ar
   5    2   27 1
   6    3    4 ar
   7    3   28 1
   8    4    5 ar
   9    4    7 1
  10    5    6 ar
  11    5    9 1
  12    6   29 1
  13    7    8 1
  14    7   30 1
  15    8    9 2
  16    8   10 1
  17    9   23 1
  18   10   11 2
  19   10   12 1
  20   12   13 1
  21   13   14 1
  22   13   31 1
  23   13   32 1
  24   14   15 1
  25   14   33 1
  26   14   34 1
  27   15   16 ar
  28   15   20 ar
  29   16   17 ar
  30   16   35 1
  31   17   18 ar
  32   17   36 1
  33   18   19 ar
  34   18   24 1
  35   19   20 ar
  36   19   37 1
  37   20   38 1
  38   22   23 1
  39   22   39 1
  40   22   40 1
  41   22   41 1
  42   23   42 1
  43   23   43 1
  44   24   25 2
  45   24   26 2

#	End of record

