#	Name: ASD01910232
#	Creating user name:	WinNT
#	Creation time:	15. 06. 2019 19:55

#	Modifying user name:	WinNT
#	Modification time:	15. 06. 2019 19:55

#	Program:	/corina/corina34_cracker 3.40 0067  02.08.2006

@<TRIPOS>MOLECULE
ASD01910232
  40   43    0    0    0
SMALL
NO_CHARGES


@<TRIPOS>ATOM
   1 C1             0.1525     1.1873    -0.0695 C.2     
   2 C2             1.3100     2.1521    -0.0479 C.3     
   3 C3             1.2481     3.0520    -1.2841 C.3     
   4 C4             2.4415     4.0102    -1.2799 C.3     
   5 C5             2.3748     4.8969    -0.0325 C.3     
   6 N6             2.2877     4.0365     1.1552 N.am    
   7 C7             1.2306     3.0177     1.2135 C.3     
   8 C8             3.1608     4.1790     2.1720 C.2     
   9 C9             2.9789     3.4049     3.4144 C.2     
  10 O10            4.0984     4.9457     2.0652 O.2     
  11 N11            0.2297    -0.1200    -0.0889 N.2     
  12 C12           -1.0492    -0.5592    -0.1025 C.2     
  13 N13           -1.8202     0.4971    -0.0908 N.2     
  14 O14           -1.1459     1.5050    -0.0668 O.3     
  15 C15           -1.4944    -1.9744    -0.1271 C.ar    
  16 C16           -2.8542    -2.2791    -0.1390 C.ar    
  17 C17           -3.2637    -3.5963    -0.1624 C.ar    
  18 C18           -2.3251    -4.6156    -0.1739 C.ar    
  19 C19           -0.9720    -4.3171    -0.1621 C.ar    
  20 C20           -0.5538    -3.0026    -0.1441 C.ar    
  21 F21           -2.7304    -5.9042    -0.1963 F       
  22 C22            3.8411     3.3367     4.4746 C.2     
  23 C23            3.1926     2.4706     5.3827 C.2     
  24 N24            2.0714     2.1183     4.8239 N.2     
  25 O25            1.9281     2.6272     3.7368 O.3     
  26 H26            2.2474     1.5957    -0.0494 H       
  27 H27            1.2797     2.4366    -2.1832 H       
  28 H28            0.3216     3.6259    -1.2695 H       
  29 H29            3.3684     3.4368    -1.2696 H       
  30 H30            2.4095     4.6349    -2.1725 H       
  31 H31            3.2728     5.5120     0.0269 H       
  32 H32            1.4940     5.5368    -0.0857 H       
  33 H33            0.2564     3.5043     1.2620 H       
  34 H34            1.3735     2.3929     2.0951 H       
  35 H35           -3.5863    -1.4853    -0.1297 H       
  36 H36           -4.3173    -3.8333    -0.1713 H       
  37 H37           -0.2438    -5.1146    -0.1712 H       
  38 H38            0.5010    -2.7708    -0.1350 H       
  39 H39            4.7950     3.8300     4.5901 H       
  40 H40            3.5563     2.1610     6.3513 H       
@<TRIPOS>BOND
   1    1   11 2
   2    1    2 1
   3    1   14 1
   4    2    3 1
   5    2    7 1
   6    2   26 1
   7    3    4 1
   8    3   27 1
   9    3   28 1
  10    4    5 1
  11    4   29 1
  12    4   30 1
  13    5    6 1
  14    5   31 1
  15    5   32 1
  16    6    7 1
  17    6    8 am
  18    7   33 1
  19    7   34 1
  20    8    9 1
  21    8   10 2
  22    9   22 2
  23    9   25 1
  24   11   12 1
  25   12   13 2
  26   12   15 1
  27   13   14 1
  28   15   16 ar
  29   15   20 ar
  30   16   17 ar
  31   16   35 1
  32   17   18 ar
  33   17   36 1
  34   18   19 ar
  35   18   21 1
  36   19   20 ar
  37   19   37 1
  38   20   38 1
  39   22   23 1
  40   22   39 1
  41   23   24 2
  42   23   40 1
  43   24   25 1

#	End of record

