#	Name: ASD01870588
#	Creating user name:	WinNT
#	Creation time:	15. 06. 2019 19:39

#	Modifying user name:	WinNT
#	Modification time:	15. 06. 2019 19:39

#	Program:	/corina/corina34_cracker 3.40 0067  02.08.2006

@<TRIPOS>MOLECULE
ASD01870588
  41   44    0    0    0
SMALL
NO_CHARGES


@<TRIPOS>ATOM
   1 C1            -0.0049     1.4046     0.0432 C.ar    
   2 C2             0.0064     0.0160     0.0436 C.ar    
   3 C3             1.2090    -0.6650     0.0173 C.ar    
   4 C4             2.4067     0.0415    -0.0095 C.ar    
   5 C5             2.3935     1.4297    -0.0099 C.ar    
   6 C6             1.1918     2.1092     0.0164 C.ar    
   7 N7             3.6263    -0.6477    -0.0357 N.am    
   8 C8             4.6743    -0.1373    -0.7121 C.2     
   9 O9             4.5337     0.8677    -1.3842 O.2     
  10 N10           -1.2228     2.0946     0.0640 N.am    
  11 C11           -2.4424     1.5298     0.0858 C.2     
  12 C12           -3.4879     2.5703     0.1037 C.ar    
  13 C13           -1.3786     3.5536     0.0719 C.3     
  14 C14           -5.6267     3.6634     0.1402 C.ar    
  15 C15           -4.9985     4.8962     0.1285 C.ar    
  16 C16           -3.6149     4.9728     0.1069 C.ar    
  17 C17           -2.8631     3.8194     0.0921 C.ar    
  18 C18           -4.8825     2.5020     0.1280 C.ar    
  19 O19           -2.6536     0.3326     0.0897 O.2     
  20 C20            5.9839    -0.7927    -0.6384 C.2     
  21 O21            6.2732    -1.9095     0.0610 O.3     
  22 C22            7.1230    -0.3831    -1.2705 C.2     
  23 C23            8.1290    -1.2979    -0.9223 C.2     
  24 C24            7.5663    -2.2162    -0.1061 C.2     
  25 C25            7.2711     0.8181    -2.1684 C.3     
  26 F26            1.2209    -2.0159     0.0182 F       
  27 Cl27          -2.8305     6.5215     0.0923 Cl      
  28 H28           -0.9242    -0.5318     0.0648 H       
  29 H29            3.3235     1.9784    -0.0307 H       
  30 H30            1.1824     3.1891     0.0158 H       
  31 H31            3.7163    -1.4921     0.4330 H       
  32 H32           -0.9083     3.9757     0.9600 H       
  33 H33           -0.9355     3.9825    -0.8269 H       
  34 H34           -6.7052     3.6102     0.1574 H       
  35 H35           -5.5879     5.8011     0.1382 H       
  36 H36           -5.3773     1.5421     0.1368 H       
  37 H37            9.1584    -1.2743    -1.2481 H       
  38 H38            8.0748    -3.0599     0.3365 H       
  39 H39            7.5505     1.6860    -1.5710 H       
  40 H40            8.0452     0.6236    -2.9107 H       
  41 H41            6.3248     1.0136    -2.6728 H       
@<TRIPOS>BOND
   1    1    2 ar
   2    1    6 ar
   3    1   10 1
   4    2    3 ar
   5    2   28 1
   6    3    4 ar
   7    3   26 1
   8    4    5 ar
   9    4    7 1
  10    5    6 ar
  11    5   29 1
  12    6   30 1
  13    7    8 am
  14    7   31 1
  15    8    9 2
  16    8   20 1
  17   10   11 am
  18   10   13 1
  19   11   12 1
  20   11   19 2
  21   12   18 ar
  22   12   17 ar
  23   13   17 1
  24   13   32 1
  25   13   33 1
  26   14   15 ar
  27   14   18 ar
  28   14   34 1
  29   15   16 ar
  30   15   35 1
  31   16   17 ar
  32   16   27 1
  33   18   36 1
  34   20   22 2
  35   20   21 1
  36   21   24 1
  37   22   23 1
  38   22   25 1
  39   23   24 2
  40   23   37 1
  41   24   38 1
  42   25   39 1
  43   25   40 1
  44   25   41 1

#	End of record

