#	Name: ASD03320003
#	Creating user name:	WinNT
#	Creation time:	15. 06. 2019 20:35

#	Modifying user name:	WinNT
#	Modification time:	15. 06. 2019 20:35

#	Program:	/corina/corina34_cracker 3.40 0067  02.08.2006

@<TRIPOS>MOLECULE
ASD03320003
  48   51    0    0    0
SMALL
NO_CHARGES


@<TRIPOS>ATOM
   1 C1            -0.0225     1.8057     0.0120 C.3     
   2 S2             0.0021    -0.0041     0.0020 S.3     
   3 C3            -1.7288    -0.3336     0.0168 C.ar    
   4 N4            -2.5749     0.6905     0.0304 N.ar    
   5 C5            -3.8877     0.4956     0.0418 C.ar    
   6 N6            -4.7603     1.5659     0.0555 N.pl3   
   7 C7            -4.2398     2.9353     0.0574 C.3     
   8 C8            -5.3893     3.9096     0.0731 C.ar    
   9 C9            -5.7053     4.5869     1.2355 C.ar    
  10 C10           -6.7600     5.4808     1.2502 C.ar    
  11 C11           -7.4992     5.6972     0.1025 C.ar    
  12 C12           -7.1844     5.0199    -1.0607 C.ar    
  13 C13           -6.1252     4.1304    -1.0777 C.ar    
  14 Cl14          -5.7288     3.2799    -2.5383 Cl      
  15 C15           -4.3711    -0.8280     0.0393 C.ar    
  16 C16           -3.4373    -1.8825     0.0248 C.ar    
  17 N17           -2.1378    -1.5916     0.0085 N.ar    
  18 N18           -4.1579    -3.0398     0.0262 N.pl3   
  19 N19           -5.5188    -2.7090     0.0414 N.2     
  20 C20           -5.6556    -1.4138     0.0492 C.2     
  21 C21           -3.6041    -4.3960     0.0134 C.3     
  22 C22           -3.3965    -4.8756     1.4514 C.3     
  23 C23           -2.9433    -6.3128     1.4411 C.ar    
  24 C24           -3.7506    -7.2958     1.9824 C.ar    
  25 C25           -3.3356    -8.6142     1.9728 C.ar    
  26 C26           -2.1122    -8.9499     1.4213 C.ar    
  27 C27           -1.3048    -7.9660     0.8797 C.ar    
  28 C28           -1.7230    -6.6486     0.8851 C.ar    
  29 Br29          -1.5436   -10.7533     1.4084 Br      
  30 Cl30          -2.1423    -3.8557     2.2500 Cl      
  31 H31            1.0001     2.1830     0.0042 H       
  32 H32           -0.5497     2.1668    -0.8711 H       
  33 H33           -0.5327     2.1573     0.9088 H       
  34 H34           -5.7178     1.4109     0.0638 H       
  35 H35           -3.6219     3.0879     0.9423 H       
  36 H36           -3.6388     3.0968    -0.8376 H       
  37 H37           -5.1285     4.4177     2.1328 H       
  38 H38           -7.0066     6.0099     2.1588 H       
  39 H39           -8.3232     6.3953     0.1146 H       
  40 H40           -7.7626     5.1885    -1.9572 H       
  41 H41           -6.5934    -0.8782     0.0612 H       
  42 H42           -4.2959    -5.0662    -0.4968 H       
  43 H43           -2.6481    -4.3932    -0.5102 H       
  44 H44           -4.3345    -4.7944     2.0005 H       
  45 H45           -4.7056    -7.0335     2.4133 H       
  46 H46           -3.9662    -9.3820     2.3961 H       
  47 H47           -0.3494    -8.2276     0.4493 H       
  48 H48           -1.0926    -5.8803     0.4623 H       
@<TRIPOS>BOND
   1    1    2 1
   2    1   31 1
   3    1   32 1
   4    1   33 1
   5    2    3 1
   6    3    4 ar
   7    3   17 ar
   8    4    5 ar
   9    5    6 1
  10    5   15 ar
  11    6    7 1
  12    6   34 1
  13    7    8 1
  14    7   35 1
  15    7   36 1
  16    8    9 ar
  17    8   13 ar
  18    9   10 ar
  19    9   37 1
  20   10   11 ar
  21   10   38 1
  22   11   12 ar
  23   11   39 1
  24   12   13 ar
  25   12   40 1
  26   13   14 1
  27   15   16 ar
  28   15   20 1
  29   16   17 ar
  30   16   18 1
  31   18   19 1
  32   18   21 1
  33   19   20 2
  34   20   41 1
  35   21   22 1
  36   21   42 1
  37   21   43 1
  38   22   23 1
  39   22   30 1
  40   22   44 1
  41   23   24 ar
  42   23   28 ar
  43   24   25 ar
  44   24   45 1
  45   25   26 ar
  46   25   46 1
  47   26   27 ar
  48   26   29 1
  49   27   28 ar
  50   27   47 1
  51   28   48 1

#	End of record

