#	Name: ASD01150156
#	Creating user name:	WinNT
#	Creation time:	15. 06. 2019 19:03

#	Modifying user name:	WinNT
#	Modification time:	15. 06. 2019 19:03

#	Program:	/corina/corina34_cracker 3.40 0067  02.08.2006

@<TRIPOS>MOLECULE
ASD01150156
  52   54    0    0    0
SMALL
NO_CHARGES


@<TRIPOS>ATOM
   1 N1            -0.0166     1.3763     0.0096 N.pl3   
   2 C2             0.0021    -0.0041     0.0020 C.2     
   3 C3            -1.3262    -0.4109     0.0125 C.2     
   4 N4            -2.0781     0.6927     0.0256 N.2     
   5 C5            -1.3102     1.7524     0.0299 C.2     
   6 C6             1.0206    -0.9813    -0.0125 C.2     
   7 N7             0.6807    -2.2871    -0.0159 N.am    
   8 C8            -0.6087    -2.6667    -0.0061 C.2     
   9 N9            -1.6103    -1.7670     0.0083 N.am    
  10 O10            2.1925    -0.6496    -0.0223 O.2     
  11 C11           -3.0026    -2.2226     0.0187 C.3     
  12 O12           -0.8774    -3.8526    -0.0100 O.2     
  13 C13            1.7328    -3.3064    -0.0310 C.3     
  14 C14            2.1070    -3.6631     1.3845 C.ar    
  15 C15            1.4429    -4.6881     2.0350 C.ar    
  16 C16            1.7807    -5.0201     3.3305 C.ar    
  17 C17            2.7952    -4.3192     3.9856 C.ar    
  18 C18            3.4612    -3.2860     3.3233 C.ar    
  19 C19            3.1169    -2.9679     2.0259 C.ar    
  20 C20            3.1620    -4.6689     5.3732 C.2     
  21 C21           -1.7991     3.1779     0.0446 C.3     
  22 C22           -1.9566     3.6481     1.4920 C.3     
  23 C23            1.1490     2.2638     0.0032 C.3     
  24 C24           -3.4739    -2.3894     1.4647 C.3     
  25 C25           -4.9279    -2.8653     1.4755 C.3     
  26 O26            2.5806    -5.5679     5.9469 O.2     
  27 O27            4.1413    -3.9907     6.0023 O.3     
  28 C28            4.4485    -4.3884     7.3645 C.3     
  29 H29           -3.6294    -1.4868    -0.4852 H       
  30 H30           -3.0759    -3.1785    -0.4999 H       
  31 H31            1.3696    -4.1958    -0.5459 H       
  32 H32            2.6081    -2.9174    -0.5512 H       
  33 H33            0.6581    -5.2291     1.5272 H       
  34 H34            1.2613    -5.8201     3.8372 H       
  35 H35            4.2466    -2.7397     3.8243 H       
  36 H36            3.6312    -2.1690     1.5124 H       
  37 H37           -1.0779     3.8146    -0.4679 H       
  38 H38           -2.7616     3.2371    -0.4635 H       
  39 H39           -2.6777     3.0114     2.0044 H       
  40 H40           -0.9941     3.5888     2.0001 H       
  41 H41           -2.3101     4.6791     1.5026 H       
  42 H42            1.4282     2.4894    -1.0259 H       
  43 H43            0.9039     3.1892     0.5244 H       
  44 H44            1.9820     1.7730     0.5065 H       
  45 H45           -2.8470    -3.1252     1.9685 H       
  46 H46           -3.4005    -1.4335     1.9833 H       
  47 H47           -5.2637    -2.9841     2.5057 H       
  48 H48           -5.5548    -2.1295     0.9717 H       
  49 H49           -5.0013    -3.8212     0.9569 H       
  50 H50            5.2530    -3.7639     7.7528 H       
  51 H51            3.5619    -4.2675     7.9870 H       
  52 H52            4.7610    -5.4326     7.3765 H       
@<TRIPOS>BOND
   1    1    2 1
   2    1   23 1
   3    1    5 1
   4    2    3 2
   5    2    6 1
   6    3    4 1
   7    3    9 1
   8    4    5 2
   9    5   21 1
  10    6    7 am
  11    6   10 2
  12    7    8 am
  13    7   13 1
  14    8    9 am
  15    8   12 2
  16    9   11 1
  17   11   24 1
  18   11   29 1
  19   11   30 1
  20   13   14 1
  21   13   31 1
  22   13   32 1
  23   14   15 ar
  24   14   19 ar
  25   15   16 ar
  26   15   33 1
  27   16   17 ar
  28   16   34 1
  29   17   18 ar
  30   17   20 1
  31   18   19 ar
  32   18   35 1
  33   19   36 1
  34   20   26 2
  35   20   27 1
  36   21   22 1
  37   21   37 1
  38   21   38 1
  39   22   39 1
  40   22   40 1
  41   22   41 1
  42   23   42 1
  43   23   43 1
  44   23   44 1
  45   24   25 1
  46   24   45 1
  47   24   46 1
  48   25   47 1
  49   25   48 1
  50   25   49 1
  51   27   28 1
  52   28   50 1
  53   28   51 1
  54   28   52 1

#	End of record

