#	Name: ASD01884940
#	Creating user name:	WinNT
#	Creation time:	15. 06. 2019 19:49

#	Modifying user name:	WinNT
#	Modification time:	15. 06. 2019 19:49

#	Program:	/corina/corina34_cracker 3.40 0067  02.08.2006

@<TRIPOS>MOLECULE
ASD01884940
  40   44    0    0    0
SMALL
NO_CHARGES


@<TRIPOS>ATOM
   1 C1            -0.0166     1.3753     0.0096 C.ar    
   2 C2             0.0021    -0.0041     0.0020 C.ar    
   3 C3            -1.1980    -0.7166     0.0096 C.ar    
   4 C4            -2.4130    -0.0319     0.0249 C.ar    
   5 C5            -2.4268     1.3471     0.0325 C.ar    
   6 C6            -1.2316     2.0555     0.0307 C.ar    
   7 C7            -1.1814    -2.1977     0.0010 C.2     
   8 C8            -1.6675    -2.9081     1.0840 C.2     
   9 C9            -0.6729    -2.9008    -1.1184 C.2     
  10 C10           -0.6590    -4.2466    -1.1244 C.2     
  11 N11           -1.1316    -4.9565    -0.0577 N.pl3   
  12 C12           -1.6380    -4.3135     1.0457 C.2     
  13 Cl13          -2.3038    -2.0774     2.4692 Cl      
  14 C14           -1.2389    -6.2880     0.2064 C.2     
  15 N15           -1.7710    -6.4124     1.3948 N.2     
  16 N16           -2.0117    -5.2538     1.9000 N.2     
  17 C17           -0.8210    -7.4133    -0.7047 C.3     
  18 N18           -1.2489     3.4522     0.0388 N.pl3   
  19 C19            0.2431    -8.3832    -0.1870 C.3     
  20 C20           -1.2145    -8.8348    -0.2980 C.3     
  21 C21           -2.5265     4.1689     0.0493 C.3     
  22 F22            1.1442     2.0664     0.0022 F       
  23 C23           -2.5379     5.5839     0.6311 C.3     
  24 C24           -2.6665     5.3768    -0.8794 C.3     
  25 H25            0.9442    -0.5320    -0.0102 H       
  26 H26           -3.3427    -0.5814     0.0305 H       
  27 H27           -3.3678     1.8769     0.0439 H       
  28 H28           -0.2953    -2.3550    -1.9704 H       
  29 H29           -0.2695    -4.7719    -1.9839 H       
  30 H30           -0.8124    -7.1781    -1.7690 H       
  31 H31           -0.4149     3.9475     0.0375 H       
  32 H32            0.9514    -8.7864    -0.9108 H       
  33 H33            0.6408    -8.2074     0.8125 H       
  34 H34           -1.7758    -8.9560     0.6285 H       
  35 H35           -1.4652    -9.5351    -1.0948 H       
  36 H36           -3.4105     3.5517     0.2095 H       
  37 H37           -3.4296     5.8978     1.1737 H       
  38 H38           -1.5949     5.9816     1.0060 H       
  39 H39           -1.8080     5.6381    -1.4981 H       
  40 H40           -3.6428     5.5543    -1.3304 H       
@<TRIPOS>BOND
   1    1    2 ar
   2    1   22 1
   3    1    6 ar
   4    2    3 ar
   5    2   25 1
   6    3    4 ar
   7    3    7 1
   8    4    5 ar
   9    4   26 1
  10    5    6 ar
  11    5   27 1
  12    6   18 1
  13    7    8 2
  14    7    9 1
  15    8   13 1
  16    8   12 1
  17    9   10 2
  18    9   28 1
  19   10   11 1
  20   10   29 1
  21   11   12 1
  22   11   14 1
  23   12   16 2
  24   14   15 2
  25   14   17 1
  26   15   16 1
  27   17   19 1
  28   17   20 1
  29   17   30 1
  30   18   21 1
  31   18   31 1
  32   19   20 1
  33   19   32 1
  34   19   33 1
  35   20   34 1
  36   20   35 1
  37   21   23 1
  38   21   24 1
  39   21   36 1
  40   23   24 1
  41   23   37 1
  42   23   38 1
  43   24   39 1
  44   24   40 1

#	End of record

