#	Name: ASD01810224
#	Creating user name:	WinNT
#	Creation time:	15. 06. 2019 19:24

#	Modifying user name:	WinNT
#	Modification time:	15. 06. 2019 19:24

#	Program:	/corina/corina34_cracker 3.40 0067  02.08.2006

@<TRIPOS>MOLECULE
ASD01810224
  42   45    0    0    0
SMALL
NO_CHARGES


@<TRIPOS>ATOM
   1 C1             7.2072     1.2950    -0.7457 C.ar    
   2 C2             7.1540    -0.0917    -0.7439 C.ar    
   3 C3             5.9652    -0.7504    -0.5093 C.ar    
   4 C4             4.8007    -0.0207    -0.2701 C.ar    
   5 C5             4.8594     1.3825    -0.2725 C.ar    
   6 C6             6.0695     2.0346    -0.5120 C.ar    
   7 N7             3.6055    -0.6664    -0.0346 N.pl3   
   8 C8             2.4612    -0.0121     0.1995 C.2     
   9 C9             2.3936     1.3666     0.2219 C.2     
  10 C10            3.6211     2.1424    -0.0183 C.2     
  11 O11            3.6143     3.3608    -0.0087 O.2     
  12 C12            1.1176     2.0481     0.4812 C.2     
  13 O13            1.0645     3.3950     0.5005 O.3     
  14 O14            0.1099     1.3973     0.6782 O.2     
  15 C15            3.5869    -2.1313    -0.0413 C.3     
  16 C16            3.4437    -2.6254    -1.4578 C.ar    
  17 N17            4.5307    -2.8489    -2.1692 N.ar    
  18 C18            4.4503    -3.2826    -3.4154 C.ar    
  19 C19            3.1892    -3.5033    -3.9746 C.ar    
  20 C20            2.0645    -3.2533    -3.1844 C.ar    
  21 N21            2.2353    -2.8258    -1.9452 N.ar    
  22 C22            3.0482    -3.9894    -5.3696 C.ar    
  23 C23            1.7822    -4.2039    -5.9107 C.ar    
  24 C24            1.6568    -4.6557    -7.2088 C.ar    
  25 C25            2.7850    -4.8954    -7.9723 C.ar    
  26 C26            4.0442    -4.6845    -7.4401 C.ar    
  27 C27            4.1811    -4.2275    -6.1450 C.ar    
  28 F28            5.9285    -2.1009    -0.5114 F       
  29 H29            8.1464     1.7966    -0.9270 H       
  30 H30            8.0529    -0.6612    -0.9285 H       
  31 H31            6.1137     3.1137    -0.5132 H       
  32 H32            1.5609    -0.5818     0.3763 H       
  33 H33            0.2030     3.7980     0.6752 H       
  34 H34            4.5175    -2.5084     0.3827 H       
  35 H35            2.7459    -2.4866     0.5542 H       
  36 H36            5.3453    -3.4632    -3.9922 H       
  37 H37            1.0714    -3.4106    -3.5785 H       
  38 H38            0.9007    -4.0174    -5.3153 H       
  39 H39            0.6761    -4.8226    -7.6291 H       
  40 H40            2.6824    -5.2488    -8.9877 H       
  41 H41            4.9218    -4.8740    -8.0404 H       
  42 H42            5.1647    -4.0632    -5.7304 H       
@<TRIPOS>BOND
   1    1    2 ar
   2    1    6 ar
   3    1   29 1
   4    2    3 ar
   5    2   30 1
   6    3    4 ar
   7    3   28 1
   8    4    5 ar
   9    4    7 1
  10    5    6 ar
  11    5   10 1
  12    6   31 1
  13    7    8 1
  14    7   15 1
  15    8    9 2
  16    8   32 1
  17    9   10 1
  18    9   12 1
  19   10   11 2
  20   12   13 1
  21   12   14 2
  22   13   33 1
  23   15   16 1
  24   15   34 1
  25   15   35 1
  26   16   17 ar
  27   16   21 ar
  28   17   18 ar
  29   18   19 ar
  30   18   36 1
  31   19   20 ar
  32   19   22 1
  33   20   21 ar
  34   20   37 1
  35   22   23 ar
  36   22   27 ar
  37   23   24 ar
  38   23   38 1
  39   24   25 ar
  40   24   39 1
  41   25   26 ar
  42   25   40 1
  43   26   27 ar
  44   26   41 1
  45   27   42 1

#	End of record

