#	Name: ASD01912378
#	Creating user name:	WinNT
#	Creation time:	15. 06. 2019 19:59

#	Modifying user name:	WinNT
#	Modification time:	15. 06. 2019 19:59

#	Program:	/corina/corina34_cracker 3.40 0067  02.08.2006

@<TRIPOS>MOLECULE
ASD01912378
  50   53    0    0    0
SMALL
NO_CHARGES


@<TRIPOS>ATOM
   1 C1             0.0932     1.6300     1.4180 C.ar    
   2 C2             0.1128     0.2576     1.5908 C.ar    
   3 C3             1.3264    -0.4162     1.5648 C.ar    
   4 C4             2.4839     0.3142     1.3653 C.ar    
   5 C5             2.3919     1.6986     1.1976 C.ar    
   6 N6             1.2082     2.3046     1.2294 N.ar    
   7 C7             3.5803     2.4701     0.9899 C.1     
   8 C8             4.5546     3.1026     0.8197 C.1     
   9 C9             5.7430     3.8741     0.6121 C.2     
  10 N10            5.4040     7.5489    -0.9487 N.am    
  11 C11            6.7043     6.8717    -1.0335 C.3     
  12 C12            6.9044     6.0270     0.2312 C.3     
  13 C13            5.6607     5.1942     0.4517 C.2     
  14 C14            4.3213     5.8969     0.4861 C.3     
  15 C15            4.1859     6.7449    -0.7850 C.3     
  16 C16            5.3297     8.8930    -1.0150 C.2     
  17 C17            4.0105     9.5592    -1.0598 C.ar    
  18 C18            3.7752    10.6952    -0.2877 C.ar    
  19 C19            2.5298    11.3169    -0.3362 C.ar    
  20 C20            1.5257    10.7991    -1.1572 C.ar    
  21 C21            1.7653     9.6734    -1.9198 C.ar    
  22 C22            2.9994     9.0550    -1.8805 C.ar    
  23 O23            6.3473     9.5574    -1.0378 O.2     
  24 S24            0.7553    13.4189     0.5283 S.3     
  25 C25            2.2712    12.5226     0.4803 C.2     
  26 N26            3.1271    13.0917     1.2798 N.2     
  27 C27            2.7204    14.1587     1.9280 C.2     
  28 C28            1.4614    14.5411     1.6896 C.2     
  29 C29           -1.2236     2.3626     1.4395 C.3     
  30 H30           -0.8081    -0.2850     1.7450 H       
  31 H31            1.3658    -1.4872     1.6979 H       
  32 H32            3.4448    -0.1781     1.3398 H       
  33 H33            6.7060     3.3859     0.5856 H       
  34 H34            6.7234     6.2257    -1.9112 H       
  35 H35            7.4989     7.6143    -1.1064 H       
  36 H36            7.7664     5.3723     0.1026 H       
  37 H37            7.0646     6.6813     1.0881 H       
  38 H38            3.5203     5.1585     0.5216 H       
  39 H39            4.2670     6.5404     1.3641 H       
  40 H40            3.3225     7.4040    -0.6943 H       
  41 H41            4.0604     6.0917    -1.6484 H       
  42 H42            4.5549    11.0914     0.3459 H       
  43 H43            0.5595    11.2801    -1.1954 H       
  44 H44            0.9853     9.2770    -2.5530 H       
  45 H45            3.1816     8.1771    -2.4826 H       
  46 H46            3.3627    14.6940     2.6116 H       
  47 H47            0.9633    15.3911     2.1320 H       
  48 H48           -1.4525     2.6684     2.4604 H       
  49 H49           -1.1594     3.2443     0.8019 H       
  50 H50           -2.0113     1.7050     1.0720 H       
@<TRIPOS>BOND
   1    1    2 ar
   2    1    6 ar
   3    1   29 1
   4    2    3 ar
   5    2   30 1
   6    3    4 ar
   7    3   31 1
   8    4    5 ar
   9    4   32 1
  10    5    6 ar
  11    5    7 1
  12    7    8 3
  13    8    9 1
  14    9   13 2
  15    9   33 1
  16   10   11 1
  17   10   15 1
  18   10   16 am
  19   11   12 1
  20   11   34 1
  21   11   35 1
  22   12   13 1
  23   12   36 1
  24   12   37 1
  25   13   14 1
  26   14   15 1
  27   14   38 1
  28   14   39 1
  29   15   40 1
  30   15   41 1
  31   16   17 1
  32   16   23 2
  33   17   18 ar
  34   17   22 ar
  35   18   19 ar
  36   18   42 1
  37   19   20 ar
  38   19   25 1
  39   20   21 ar
  40   20   43 1
  41   21   22 ar
  42   21   44 1
  43   22   45 1
  44   24   25 1
  45   24   28 1
  46   25   26 2
  47   26   27 1
  48   27   28 2
  49   27   46 1
  50   28   47 1
  51   29   48 1
  52   29   49 1
  53   29   50 1

#	End of record

