#	Name: ASD01917990
#	Creating user name:	WinNT
#	Creation time:	15. 06. 2019 20:10

#	Modifying user name:	WinNT
#	Modification time:	15. 06. 2019 20:10

#	Program:	/corina/corina34_cracker 3.40 0067  02.08.2006

@<TRIPOS>MOLECULE
ASD01917990
  40   43    0    0    0
SMALL
NO_CHARGES


@<TRIPOS>ATOM
   1 N1             4.7261    -0.5757    -2.1730 N.ar    
   2 C2             5.2104     0.1543    -3.1575 C.ar    
   3 N3             5.1518     1.4708    -3.1424 N.ar    
   4 C4             4.5986     2.1142    -2.1275 C.ar    
   5 C5             4.0752     1.3804    -1.0677 C.ar    
   6 C6             4.1573    -0.0073    -1.1226 C.ar    
   7 O7             3.4991     2.0032    -0.0061 O.3     
   8 C8             3.5511     3.3617     0.0428 C.2     
   9 N9             2.4065     5.4401    -0.0234 N.pl3   
  10 C10            2.4054     4.0776    -0.0665 C.2     
  11 C11            4.7875     3.9989     0.2112 C.2     
  12 C12            4.8353     5.3865     0.2605 C.2     
  13 C13            3.5798     6.1313     0.1332 C.2     
  14 C14            6.1156     6.0910     0.4367 C.2     
  15 N15            6.1429     7.4378     0.4822 N.am    
  16 C16            7.3381     8.1019     0.7545 C.ar    
  17 N17            8.4622     7.4111     0.8599 N.ar    
  18 C18            7.3382     9.4835     0.9069 C.ar    
  19 C19            8.5310    10.1314     1.1765 C.ar    
  20 C20            9.6887     9.3702     1.2849 C.ar    
  21 C21            9.6149     7.9993     1.1161 C.ar    
  22 O22            7.1489     5.4579     0.5412 O.2     
  23 C23            1.4052     6.3707    -0.1086 C.2     
  24 C24            1.9828     7.5871    -0.0126 C.2     
  25 N25            3.3008     7.4222     0.1403 N.2     
  26 C26            5.8503    -0.5362    -4.3343 C.3     
  27 F27           10.8740     9.9632     1.5472 F       
  28 H28            4.5543     3.1932    -2.1216 H       
  29 H29            3.7625    -0.6117    -0.3193 H       
  30 H30            1.4683     3.5556    -0.1914 H       
  31 H31            5.6933     3.4178     0.3019 H       
  32 H32            5.3311     7.9449     0.3256 H       
  33 H33            6.4196    10.0441     0.8157 H       
  34 H34            8.5616    11.2039     1.2995 H       
  35 H35           10.5120     7.4031     1.1951 H       
  36 H36            0.3518     6.1694    -0.2364 H       
  37 H37            1.4657     8.5348    -0.0445 H       
  38 H38            5.0936    -0.7382    -5.0925 H       
  39 H39            6.6242     0.1055    -4.7554 H       
  40 H40            6.2957    -1.4754    -4.0063 H       
@<TRIPOS>BOND
   1    1    2 ar
   2    1    6 ar
   3    2    3 ar
   4    2   26 1
   5    3    4 ar
   6    4    5 ar
   7    4   28 1
   8    5    6 ar
   9    5    7 1
  10    6   29 1
  11    7    8 1
  12    8   11 1
  13    8   10 2
  14    9   10 1
  15    9   23 1
  16    9   13 1
  17   10   30 1
  18   11   12 2
  19   11   31 1
  20   12   13 1
  21   12   14 1
  22   13   25 2
  23   14   15 am
  24   14   22 2
  25   15   16 1
  26   15   32 1
  27   16   18 ar
  28   16   17 ar
  29   17   21 ar
  30   18   19 ar
  31   18   33 1
  32   19   20 ar
  33   19   34 1
  34   20   21 ar
  35   20   27 1
  36   21   35 1
  37   23   24 2
  38   23   36 1
  39   24   25 1
  40   24   37 1
  41   26   38 1
  42   26   39 1
  43   26   40 1

#	End of record

