#	Name: ASD01230697
#	Creating user name:	WinNT
#	Creation time:	15. 06. 2019 19:14

#	Modifying user name:	WinNT
#	Modification time:	15. 06. 2019 19:14

#	Program:	/corina/corina34_cracker 3.40 0067  02.08.2006

@<TRIPOS>MOLECULE
ASD01230697
  49   52    0    0    0
SMALL
NO_CHARGES


@<TRIPOS>ATOM
   1 S1             0.5572     1.4608     1.7458 S.o2    
   2 N2             0.4475    -0.1377     1.3325 N.am    
   3 C3             1.4365    -0.7823     0.7627 C.2     
   4 N4             2.6514    -0.2470     0.4407 N.pl3   
   5 C5             3.0008     1.1631     0.6315 C.3     
   6 C6             2.3535     1.7104     1.9067 C.3     
   7 C7             1.1877    -2.2069     0.4557 C.2     
   8 C8             2.1964    -2.9578    -0.1083 C.2     
   9 C9             3.4288    -2.3471    -0.3769 C.2     
  10 C10            3.6261    -1.0461    -0.1020 C.2     
  11 C11           -0.1277    -2.8191     0.7507 C.ar    
  12 C12           -0.2309    -3.8312     1.7053 C.ar    
  13 C13           -1.4597    -4.3973     1.9761 C.ar    
  14 C14           -2.5879    -3.9633     1.3032 C.ar    
  15 C15           -2.4920    -2.9603     0.3550 C.ar    
  16 C16           -1.2700    -2.3822     0.0794 C.ar    
  17 C17           -3.9269    -4.5860     1.6038 C.3     
  18 C18           -3.7776    -5.5873     2.7511 C.3     
  19 C19           -4.9039    -3.5094     2.0006 C.ar    
  20 C20           -6.0988    -3.3749     1.3187 C.ar    
  21 C21           -6.9949    -2.3874     1.6826 C.ar    
  22 C22           -6.6964    -1.5345     2.7287 C.ar    
  23 C23           -5.5019    -1.6696     3.4113 C.ar    
  24 C24           -4.6077    -2.6599     3.0501 C.ar    
  25 C25           -4.4437    -5.3101     0.3590 C.3     
  26 O26            0.0503     2.1578     0.6160 O.2     
  27 O27           -0.0796     1.5469     3.0132 O.2     
  28 H28            4.0839     1.2577     0.7091 H       
  29 H29            2.6507     1.7392    -0.2251 H       
  30 H30            2.5732     2.7732     2.0081 H       
  31 H31            2.7276     1.1683     2.7752 H       
  32 H32            2.0396    -4.0010    -0.3394 H       
  33 H33            4.2296    -2.9286    -0.8091 H       
  34 H34            4.5911    -0.6117    -0.3179 H       
  35 H35            0.6491    -4.1711     2.2310 H       
  36 H36           -1.5409    -5.1812     2.7146 H       
  37 H37           -3.3763    -2.6263    -0.1674 H       
  38 H38           -1.1971    -1.5962    -0.6577 H       
  39 H39           -3.4095    -5.0714     3.6379 H       
  40 H40           -4.7461    -6.0377     2.9686 H       
  41 H41           -3.0710    -6.3660     2.4641 H       
  42 H42           -6.3320    -4.0413     0.5013 H       
  43 H43           -7.9282    -2.2818     1.1493 H       
  44 H44           -7.3963    -0.7625     3.0126 H       
  45 H45           -5.2685    -1.0030     4.2284 H       
  46 H46           -3.6761    -2.7678     3.5858 H       
  47 H47           -3.7370    -6.0888     0.0720 H       
  48 H48           -5.4121    -5.7605     0.5765 H       
  49 H49           -4.5500    -4.5968    -0.4583 H       
@<TRIPOS>BOND
   1    1    2 am
   2    1    6 1
   3    1   26 2
   4    1   27 2
   5    2    3 2
   6    3    4 1
   7    3    7 1
   8    4    5 1
   9    4   10 1
  10    5    6 1
  11    5   28 1
  12    5   29 1
  13    6   30 1
  14    6   31 1
  15    7    8 2
  16    7   11 1
  17    8    9 1
  18    8   32 1
  19    9   10 2
  20    9   33 1
  21   10   34 1
  22   11   12 ar
  23   11   16 ar
  24   12   13 ar
  25   12   35 1
  26   13   14 ar
  27   13   36 1
  28   14   15 ar
  29   14   17 1
  30   15   16 ar
  31   15   37 1
  32   16   38 1
  33   17   18 1
  34   17   19 1
  35   17   25 1
  36   18   39 1
  37   18   40 1
  38   18   41 1
  39   19   20 ar
  40   19   24 ar
  41   20   21 ar
  42   20   42 1
  43   21   22 ar
  44   21   43 1
  45   22   23 ar
  46   22   44 1
  47   23   24 ar
  48   23   45 1
  49   24   46 1
  50   25   47 1
  51   25   48 1
  52   25   49 1

#	End of record

