#	Name: ASD03080152
#	Creating user name:	WinNT
#	Creation time:	15. 06. 2019 20:26

#	Modifying user name:	WinNT
#	Modification time:	15. 06. 2019 20:26

#	Program:	/corina/corina34_cracker 3.40 0067  02.08.2006

@<TRIPOS>MOLECULE
ASD03080152
  28   29    0    0    0
SMALL
NO_CHARGES


@<TRIPOS>ATOM
   1 C1            -0.0167     1.3802     0.0096 C.ar    
   2 C2             0.0021    -0.0041     0.0020 C.ar    
   3 C3            -1.1883    -0.7117     0.0095 C.ar    
   4 C4            -2.3932    -0.0355     0.0246 C.ar    
   5 C5            -2.4107     1.3470     0.0322 C.ar    
   6 C6            -1.2232     2.0543     0.0305 C.ar    
   7 C7             1.2778     2.1516     0.0014 C.3     
   8 O8             1.0530     3.4683    -0.5680 O.3     
   9 F9             1.1808    -0.6641    -0.0132 F       
  10 C10            1.7940     2.2970     1.4344 C.3     
  11 C11            2.0856     4.0383    -1.2151 C.2     
  12 O12            3.1455     3.4525    -1.3021 O.2     
  13 N13            1.9435     5.2598    -1.7669 N.am    
  14 C14            2.9036     5.9643    -2.4547 C.2     
  15 C15            0.8188     6.0301    -1.7548 C.2     
  16 N16            1.0711     7.1404    -2.3890 N.2     
  17 C17            2.3400     7.1266    -2.8278 C.2     
  18 H18           -1.1748    -1.7916     0.0033 H       
  19 H19           -3.3217    -0.5872     0.0301 H       
  20 H20           -3.3530     1.8746     0.0437 H       
  21 H21           -1.2380     3.1342     0.0365 H       
  22 H22            2.0152     1.6177    -0.5980 H       
  23 H23            1.9628     1.3086     1.8618 H       
  24 H24            2.7303     2.8550     1.4284 H       
  25 H25            1.0566     2.8310     2.0337 H       
  26 H26            3.9155     5.6454    -2.6563 H       
  27 H27           -0.1228     5.7649    -1.2971 H       
  28 H28            2.8250     7.9145    -3.3848 H       
@<TRIPOS>BOND
   1    1    2 ar
   2    1    7 1
   3    1    6 ar
   4    2    3 ar
   5    2    9 1
   6    3    4 ar
   7    3   18 1
   8    4    5 ar
   9    4   19 1
  10    5    6 ar
  11    5   20 1
  12    6   21 1
  13    7    8 1
  14    7   10 1
  15    7   22 1
  16    8   11 1
  17   10   23 1
  18   10   24 1
  19   10   25 1
  20   11   12 2
  21   11   13 am
  22   13   14 1
  23   13   15 1
  24   14   17 2
  25   14   26 1
  26   15   16 2
  27   15   27 1
  28   16   17 1
  29   17   28 1

#	End of record

