#	Name: ASD07301059
#	Creating user name:	WinNT
#	Creation time:	15. 06. 2019 21:10

#	Modifying user name:	WinNT
#	Modification time:	15. 06. 2019 21:10

#	Program:	/corina/corina34_cracker 3.40 0067  02.08.2006

@<TRIPOS>MOLECULE
ASD07301059
  32   32    0    0    0
SMALL
NO_CHARGES


@<TRIPOS>ATOM
   1 C1            -0.1212     1.5013     0.0782 C.3     
   2 C2            -0.0957    -0.0055     0.0661 C.2     
   3 C3             0.6551    -0.7330     1.0906 C.2     
   4 C4             0.6798    -2.1965     1.0788 C.2     
   5 C5             1.8140    -2.9255     0.4057 C.3     
   6 O6            -0.6976    -0.6156    -0.7931 O.2     
   7 O7            -0.2131    -2.8228     1.6111 O.2     
   8 N8             1.3115    -0.0676     2.0276 N.2     
   9 N9             1.8871    -0.7065     2.9891 N.pl3   
  10 C10            2.4880    -0.0027     4.0327 C.ar    
  11 C11            3.1088    -0.6895     5.0699 C.ar    
  12 C12            3.7030     0.0106     6.1008 C.ar    
  13 C13            3.6811     1.3937     6.1026 C.ar    
  14 C14            3.0642     2.0804     5.0729 C.ar    
  15 C15            2.4727     1.3871     4.0353 C.ar    
  16 S16            3.1368    -2.4513     5.0689 S.o     
  17 O17            4.1914    -2.7547     5.9717 O.2     
  18 C18            1.5474    -2.8850     5.8281 C.3     
  19 H19            0.8952     1.8826    -0.0195 H       
  20 H20           -0.7259     1.8611    -0.7541 H       
  21 H21           -0.5513     1.8498     1.0172 H       
  22 H22            2.4666    -2.2055    -0.0881 H       
  23 H23            2.3833    -3.4798     1.1518 H       
  24 H24            1.4125    -3.6186    -0.3336 H       
  25 H25            1.9020    -1.6763     2.9865 H       
  26 H26            4.1851    -0.5223     6.9070 H       
  27 H27            4.1468     1.9387     6.9104 H       
  28 H28            3.0485     3.1603     5.0782 H       
  29 H29            1.9953     1.9241     3.2290 H       
  30 H30            0.7345    -2.4786     5.2264 H       
  31 H31            1.4537    -3.9697     5.8803 H       
  32 H32            1.4991    -2.4674     6.8337 H       
@<TRIPOS>BOND
   1    1    2 1
   2    1   19 1
   3    1   20 1
   4    1   21 1
   5    2    3 1
   6    2    6 2
   7    3    4 1
   8    3    8 2
   9    4    5 1
  10    4    7 2
  11    5   22 1
  12    5   23 1
  13    5   24 1
  14    8    9 1
  15    9   10 1
  16    9   25 1
  17   10   11 ar
  18   10   15 ar
  19   11   12 ar
  20   11   16 1
  21   12   13 ar
  22   12   26 1
  23   13   14 ar
  24   13   27 1
  25   14   15 ar
  26   14   28 1
  27   15   29 1
  28   16   17 2
  29   16   18 1
  30   18   30 1
  31   18   31 1
  32   18   32 1

#	End of record

