#	Name: ASD08830155
#	Creating user name:	WinNT
#	Creation time:	15. 06. 2019 21:19

#	Modifying user name:	WinNT
#	Modification time:	15. 06. 2019 21:19

#	Program:	/corina/corina34_cracker 3.40 0067  02.08.2006

@<TRIPOS>MOLECULE
ASD08830155
  49   51    0    0    0
SMALL
NO_CHARGES


@<TRIPOS>ATOM
   1 C1            -0.0194     1.4667     0.0103 C.ar    
   2 C2             0.0003    -0.0050     0.0063 C.2     
   3 C3             1.3152    -0.7409    -0.0141 C.3     
   4 C4             1.0558    -2.2488    -0.0144 C.3     
   5 N5             2.3376    -2.9662    -0.0342 N.3     
   6 O6            -1.0415    -0.6253     0.0193 O.2     
   7 C7             1.1812     2.1847    -0.0047 C.ar    
   8 C8            -0.0407     4.2447     0.0173 C.ar    
   9 C9            -1.2454     3.5413     0.0266 C.ar    
  10 C10            2.1405    -4.4036     0.2032 C.3     
  11 C11            1.1617     3.5645    -0.0013 C.ar    
  12 C12           -1.2369     2.1513     0.0234 C.ar    
  13 C13            3.4908    -5.1197     0.1149 C.3     
  14 O14            4.3971    -4.5350     1.0542 O.3     
  15 C15            4.6127    -3.1357     0.8518 C.3     
  16 C16            3.2737    -2.3995     0.9475 C.3     
  17 C17           -2.5346     4.2761     0.0466 C.ar    
  18 C18           -3.7526     3.5884     0.0562 C.ar    
  19 C19           -4.9297     4.3064     0.0753 C.ar    
  20 N20           -4.9201     5.6258     0.0845 N.ar    
  21 C21           -3.7911     6.3178     0.0760 C.ar    
  22 C22           -2.5633     5.6710     0.0622 C.ar    
  23 N23           -3.8364     7.7114     0.0859 N.am    
  24 C24           -5.0208     8.3478    -0.0060 C.2     
  25 C25           -5.0819     9.8482     0.1218 C.3     
  26 O26           -6.0374     7.7132    -0.1915 O.2     
  27 H27            1.8707    -0.4677    -0.9113 H       
  28 H28            1.8957    -0.4723     0.8685 H       
  29 H29            0.5003    -2.5220     0.8828 H       
  30 H30            0.4753    -2.5174    -0.8970 H       
  31 H31            2.1242     1.6586    -0.0186 H       
  32 H32           -0.0481     5.3246     0.0198 H       
  33 H33            1.7132    -4.5535     1.1946 H       
  34 H34            1.4644    -4.8076    -0.5503 H       
  35 H35            2.0906     4.1152    -0.0130 H       
  36 H36           -2.1674     1.6031     0.0302 H       
  37 H37            3.3582    -6.1765     0.3466 H       
  38 H38            3.8932    -5.0150    -0.8927 H       
  39 H39            5.2913    -2.7577     1.6164 H       
  40 H40            5.0476    -2.9734    -0.1344 H       
  41 H41            3.4247    -1.3407     0.7374 H       
  42 H42            2.8644    -2.5174     1.9509 H       
  43 H43           -3.7709     2.5086     0.0485 H       
  44 H44           -5.8733     3.7811     0.0824 H       
  45 H45           -1.6444     6.2385     0.0553 H       
  46 H46           -3.0154     8.2228     0.1590 H       
  47 H47           -4.0778    10.2402     0.2839 H       
  48 H48           -5.4951    10.2742    -0.7924 H       
  49 H49           -5.7170    10.1153     0.9665 H       
@<TRIPOS>BOND
   1    1    2 1
   2    1    7 ar
   3    1   12 ar
   4    2    3 1
   5    2    6 2
   6    3    4 1
   7    3   27 1
   8    3   28 1
   9    4    5 1
  10    4   29 1
  11    4   30 1
  12    5   10 1
  13    5   16 1
  14    7   11 ar
  15    7   31 1
  16    8    9 ar
  17    8   11 ar
  18    8   32 1
  19    9   12 ar
  20    9   17 1
  21   10   13 1
  22   10   33 1
  23   10   34 1
  24   11   35 1
  25   12   36 1
  26   13   14 1
  27   13   37 1
  28   13   38 1
  29   14   15 1
  30   15   16 1
  31   15   39 1
  32   15   40 1
  33   16   41 1
  34   16   42 1
  35   17   18 ar
  36   17   22 ar
  37   18   19 ar
  38   18   43 1
  39   19   20 ar
  40   19   44 1
  41   20   21 ar
  42   21   22 ar
  43   21   23 1
  44   22   45 1
  45   23   24 am
  46   23   46 1
  47   24   25 1
  48   24   26 2
  49   25   47 1
  50   25   48 1
  51   25   49 1

#	End of record

