#	Name: ASD02690037
#	Creating user name:	WinNT
#	Creation time:	15. 06. 2019 20:26

#	Modifying user name:	WinNT
#	Modification time:	15. 06. 2019 20:26

#	Program:	/corina/corina34_cracker 3.40 0067  02.08.2006

@<TRIPOS>MOLECULE
ASD02690037
  49   51    0    0    0
SMALL
NO_CHARGES


@<TRIPOS>ATOM
   1 C1             0.0043     1.2406     0.0663 C.2     
   2 O2             0.0151     0.0308    -0.0197 O.2     
   3 C3             1.2693     1.9827     0.1429 C.ar    
   4 C4             2.4894     1.2958     0.1169 C.ar    
   5 C5             3.6677     1.9934     0.1888 C.ar    
   6 C6             3.6525     3.3806     0.2874 C.ar    
   7 C7             2.4435     4.0675     0.3136 C.ar    
   8 C8             1.2597     3.3799     0.2365 C.ar    
   9 O9             4.8211     4.0660     0.3587 O.3     
  10 C10            4.7336     5.4888     0.4585 C.3     
  11 N11           -4.0827     2.0913     0.8777 N.3     
  12 C12           -3.7238     1.8748    -0.5297 C.3     
  13 C13           -2.3817     1.1436    -0.6086 C.3     
  14 C14           -1.3071     1.9828     0.0882 C.3     
  15 C15           -1.7283     2.2347     1.5386 C.3     
  16 C16           -3.0893     2.9343     1.5553 C.3     
  17 N17           -8.1421     2.4528     1.9611 N.3     
  18 C18           -7.8542     2.2969     0.5296 C.3     
  19 C19           -6.4473     1.7219     0.3506 C.3     
  20 C20           -5.4292     2.6666     0.9951 C.3     
  21 C21           -5.7801     2.8501     2.4742 C.3     
  22 C22           -7.2063     3.3924     2.5917 C.3     
  23 O23           -6.3724     0.4401     0.9778 O.3     
  24 H24            2.5023     0.2186     0.0408 H       
  25 H25            4.6092     1.4646     0.1692 H       
  26 H26            2.4371     5.1447     0.3907 H       
  27 H27            0.3215     3.9146     0.2524 H       
  28 H28            4.2156     5.8832    -0.4158 H       
  29 H29            4.1816     5.7566     1.3594 H       
  30 H30            5.7369     5.9119     0.5079 H       
  31 H31           -4.4940     1.2732    -1.0124 H       
  32 H32           -3.6437     2.8366    -1.0362 H       
  33 H33           -2.4650     0.1757    -0.1142 H       
  34 H34           -2.1081     0.9969    -1.6534 H       
  35 H35           -1.1955     2.9350    -0.4303 H       
  36 H36           -1.8013     1.2840     2.0668 H       
  37 H37           -0.9879     2.8676     2.0279 H       
  38 H38           -3.0122     3.8911     1.0390 H       
  39 H39           -3.3987     3.1023     2.5869 H       
  40 H40           -9.0979     2.7407     2.1084 H       
  41 H41           -8.5828     1.6195     0.0842 H       
  42 H42           -7.9146     3.2684     0.0391 H       
  43 H43           -6.2280     1.6209    -0.7124 H       
  44 H44           -5.4580     3.6323     0.4905 H       
  45 H45           -5.7125     1.8901     2.9861 H       
  46 H46           -5.0841     3.5552     2.9286 H       
  47 H47           -7.2697     4.3588     2.0915 H       
  48 H48           -7.4644     3.5107     3.6441 H       
  49 H49           -6.9934    -0.2095     0.6206 H       
@<TRIPOS>BOND
   1    1    2 2
   2    1    3 1
   3    1   14 1
   4    3    4 ar
   5    3    8 ar
   6    4    5 ar
   7    4   24 1
   8    5    6 ar
   9    5   25 1
  10    6    7 ar
  11    6    9 1
  12    7    8 ar
  13    7   26 1
  14    8   27 1
  15    9   10 1
  16   10   28 1
  17   10   29 1
  18   10   30 1
  19   11   12 1
  20   11   16 1
  21   11   20 1
  22   12   13 1
  23   12   31 1
  24   12   32 1
  25   13   14 1
  26   13   33 1
  27   13   34 1
  28   14   15 1
  29   14   35 1
  30   15   16 1
  31   15   36 1
  32   15   37 1
  33   16   38 1
  34   16   39 1
  35   17   18 1
  36   17   22 1
  37   17   40 1
  38   18   19 1
  39   18   41 1
  40   18   42 1
  41   19   20 1
  42   19   23 1
  43   19   43 1
  44   20   21 1
  45   20   44 1
  46   21   22 1
  47   21   45 1
  48   21   46 1
  49   22   47 1
  50   22   48 1
  51   23   49 1

#	End of record

