#	Name: ASD02320028
#	Creating user name:	WinNT
#	Creation time:	15. 06. 2019 20:20

#	Modifying user name:	WinNT
#	Modification time:	15. 06. 2019 20:20

#	Program:	/corina/corina34_cracker 3.40 0067  02.08.2006

@<TRIPOS>MOLECULE
ASD02320028
  62   64    0    0    0
SMALL
NO_CHARGES


@<TRIPOS>ATOM
   1 C1             1.2656    -1.3590     1.3299 C.ar    
   2 C2             1.5471    -2.2369     0.3015 C.ar    
   3 C3             2.5646    -1.9450    -0.5912 C.ar    
   4 C4             3.3059    -0.7735    -0.4595 C.ar    
   5 C5             3.0338     0.0969     0.5710 C.ar    
   6 C6             2.0051    -0.1967     1.4647 C.ar    
   7 C7             4.3819    -0.5033    -1.4810 C.3     
   8 N8             5.2192     0.6145    -1.0330 N.am    
   9 C9             4.5336     1.7949    -0.4816 C.3     
  10 C10            3.8131     1.3659     0.7956 C.3     
  11 C11            6.5631     0.5630    -1.1223 C.2     
  12 O12            7.2274     1.5377    -0.8402 O.2     
  13 C13            9.4330    -1.7664    -2.0368 C.ar    
  14 C14            9.5900    -2.0260    -3.3904 C.ar    
  15 C15            9.9023    -2.6681    -1.1018 C.ar    
  16 C16           10.5307    -3.8333    -1.5163 C.ar    
  17 C17           10.6877    -4.0927    -2.8695 C.ar    
  18 C18           10.2182    -3.1909    -3.8048 C.ar    
  19 O19            2.8423    -2.8091    -1.6038 O.3     
  20 S20            2.0614    -2.5370    -2.8815 S.o2    
  21 O21            2.3172    -3.6329    -3.7492 O.2     
  22 O22            0.7538    -2.1535    -2.4785 O.2     
  23 O23            2.6846    -1.3139    -3.5387 O.3     
  24 Na24           4.4270    -1.6736    -4.4303 Du      
  25 O25            9.1275    -1.1385    -4.3111 O.3     
  26 S26           10.1429    -0.0786    -4.7138 S.o2    
  27 O27            9.4421     0.8659    -5.5112 O.2     
  28 O28           10.8465     0.2732    -3.5304 O.2     
  29 O29           11.1545    -0.7496    -5.6318 O.3     
  30 Na30          10.4742    -1.0974    -7.4693 Du      
  31 O31            1.7257     0.6662     2.4778 O.3     
  32 S32            0.6959     1.7283     2.1201 S.o2    
  33 O33            0.6756     2.6483     3.2028 O.2     
  34 O34            0.9651     2.1125     0.7787 O.2     
  35 O35           -0.6661     1.0491     2.1075 O.3     
  36 Na36          -1.3910     0.6555     3.9185 Du      
  37 C37            7.2402    -0.7058    -1.5726 C.3     
  38 C38            8.7559    -0.4977    -1.5865 C.3     
  39 C39            5.5428     2.8675    -0.1618 C.2     
  40 O40            6.3195     2.7135     0.7508 O.2     
  41 O41            5.5787     3.9940    -0.8908 O.3     
  42 Na42           6.9465     5.3503    -0.3911 Du      
  43 O43           10.9931    -4.7208    -0.5956 O.3     
  44 S44            9.9776    -5.7804    -0.1926 S.o2    
  45 O45           10.5460    -6.4849     0.9027 O.2     
  46 O46            8.7187    -5.1247    -0.1258 O.2     
  47 O47            9.8839    -6.7746    -1.3411 O.3     
  48 Na48          11.4376    -8.0113    -1.4698 Du      
  49 H49            0.4677    -1.5766     2.0244 H       
  50 H50            0.9763    -3.1475     0.1943 H       
  51 H51            4.9994    -1.3934    -1.6015 H       
  52 H52            3.9205    -0.2509    -2.4357 H       
  53 H53            3.8100     2.1721    -1.2042 H       
  54 H54            3.1292     2.1567     1.1042 H       
  55 H55            4.5479     1.2007     1.5835 H       
  56 H56            9.7804    -2.4658    -0.0480 H       
  57 H57           11.1772    -4.9997    -3.1921 H       
  58 H58           10.3408    -3.3928    -4.8586 H       
  59 H59            6.9907    -1.5143    -0.8856 H       
  60 H60            6.8996    -0.9631    -2.5756 H       
  61 H61            9.0965    -0.2403    -0.5836 H       
  62 H62            9.0054     0.3109    -2.2736 H       
@<TRIPOS>BOND
   1    1    2 ar
   2    1    6 ar
   3    1   49 1
   4    2    3 ar
   5    2   50 1
   6    3    4 ar
   7    3   19 1
   8    4    5 ar
   9    4    7 1
  10    5    6 ar
  11    5   10 1
  12    6   31 1
  13    7    8 1
  14    7   51 1
  15    7   52 1
  16    8    9 1
  17    8   11 am
  18    9   10 1
  19    9   39 1
  20    9   53 1
  21   10   54 1
  22   10   55 1
  23   11   12 2
  24   11   37 1
  25   13   14 ar
  26   13   15 ar
  27   13   38 1
  28   14   25 1
  29   14   18 ar
  30   15   16 ar
  31   15   56 1
  32   16   17 ar
  33   16   43 1
  34   17   18 ar
  35   17   57 1
  36   18   58 1
  37   19   20 1
  38   20   21 2
  39   20   22 2
  40   20   23 1
  41   23   24 1
  42   25   26 1
  43   26   27 2
  44   26   28 2
  45   26   29 1
  46   29   30 1
  47   31   32 1
  48   32   33 2
  49   32   34 2
  50   32   35 1
  51   35   36 1
  52   37   38 1
  53   37   59 1
  54   37   60 1
  55   38   61 1
  56   38   62 1
  57   39   40 2
  58   39   41 1
  59   41   42 1
  60   43   44 1
  61   44   45 2
  62   44   46 2
  63   44   47 1
  64   47   48 1

#	End of record

