#	Name: ASD00120014
#	Creating user name:	WinNT
#	Creation time:	15. 06. 2019 18:31

#	Modifying user name:	WinNT
#	Modification time:	15. 06. 2019 18:31

#	Program:	/corina/corina34_cracker 3.40 0067  02.08.2006

@<TRIPOS>MOLECULE
ASD00120014
  58   61    0    0    0
SMALL
NO_CHARGES


@<TRIPOS>ATOM
   1 O1             0.3772    -0.0864    -0.6787 O.2     
   2 C2             0.2085     1.0423    -0.2688 C.2     
   3 C3             1.3667     2.0049    -0.2133 C.3     
   4 N4             2.6051     1.2987    -0.5508 N.pl3   
   5 C5             2.8729     0.6599    -1.7100 C.2     
   6 N6             4.0733     0.1528    -1.6407 N.2     
   7 C7             4.6094     0.4466    -0.4469 C.2     
   8 C8             3.7092     1.1682     0.2478 C.2     
   9 S9             6.2130    -0.0232     0.1120 S.o2    
  10 O10            6.0957    -0.0538     1.5278 O.2     
  11 O11            6.5092    -1.2020    -0.6242 O.2     
  12 C12            7.2910     1.3399    -0.4081 C.3     
  13 C13            8.7819     1.0874    -0.1281 C.3     
  14 C14            9.0670     1.7330    -1.4944 C.3     
  15 C15            7.6472     1.3073    -1.9038 C.3     
  16 C16            1.1366     3.1381    -1.2151 C.3     
  17 C17            2.2935     4.1358    -1.1312 C.3     
  18 C18            2.1599     5.1709    -2.2523 C.3     
  19 C19            3.2759     6.2096    -2.1130 C.3     
  20 O20            3.1994     6.8189    -0.8227 O.3     
  21 C21            3.3651     5.9061     0.2643 C.3     
  22 C22            2.2527     4.8553     0.2205 C.3     
  23 N23           -1.0161     1.4377     0.1319 N.am    
  24 C24           -2.0890     0.5579     0.0580 C.ar    
  25 C25           -1.8494    -0.8116    -0.0218 C.ar    
  26 C26           -2.9187    -1.6801    -0.0949 C.ar    
  27 C27           -4.2151    -1.1434    -0.0859 C.ar    
  28 C28           -4.3743     0.2415    -0.0037 C.ar    
  29 N29           -3.3261     1.0337     0.0698 N.ar    
  30 C30           -5.3921    -2.0287    -0.1625 C.2     
  31 O31           -5.2432    -3.2325    -0.2342 O.2     
  32 O32           -6.6326    -1.5027    -0.1531 O.3     
  33 H33            1.4470     2.4191     0.7918 H       
  34 H34            2.2041     0.5812    -2.5544 H       
  35 H35            3.8320     1.5620     1.2459 H       
  36 H36            6.9404     2.3123    -0.0625 H       
  37 H37            9.1708     1.6590     0.7146 H       
  38 H38            9.0445     0.0306    -0.0813 H       
  39 H39            9.2023     2.8136    -1.4471 H       
  40 H40            9.8531     1.2314    -2.0589 H       
  41 H41            7.5996     0.3106    -2.3424 H       
  42 H42            7.1200     2.0564    -2.4946 H       
  43 H43            1.0839     2.7268    -2.2232 H       
  44 H44            0.2011     3.6460    -0.9806 H       
  45 H45            3.2403     3.6058    -1.2352 H       
  46 H46            2.2434     4.6739    -3.2188 H       
  47 H47            1.1911     5.6650    -2.1783 H       
  48 H48            4.2435     5.7210    -2.2275 H       
  49 H49            3.1604     6.9726    -2.8828 H       
  50 H50            4.3339     5.4136     0.1809 H       
  51 H51            3.3139     6.4506     1.2072 H       
  52 H52            1.2858     5.3430     0.3445 H       
  53 H53            2.4026     4.1325     1.0225 H       
  54 H54           -1.1485     2.3365     0.4718 H       
  55 H55           -0.8377    -1.1895    -0.0267 H       
  56 H56           -2.7619    -2.7468    -0.1580 H       
  57 H57           -5.3672     0.6662     0.0041 H       
  58 H58           -7.3728    -2.1227    -0.2052 H       
@<TRIPOS>BOND
   1    1    2 2
   2    2    3 1
   3    2   23 am
   4    3    4 1
   5    3   16 1
   6    3   33 1
   7    4    5 1
   8    4    8 1
   9    5    6 2
  10    5   34 1
  11    6    7 1
  12    7    8 2
  13    7    9 1
  14    8   35 1
  15    9   10 2
  16    9   11 2
  17    9   12 1
  18   12   13 1
  19   12   15 1
  20   12   36 1
  21   13   14 1
  22   13   37 1
  23   13   38 1
  24   14   15 1
  25   14   39 1
  26   14   40 1
  27   15   41 1
  28   15   42 1
  29   16   17 1
  30   16   43 1
  31   16   44 1
  32   17   18 1
  33   17   22 1
  34   17   45 1
  35   18   19 1
  36   18   46 1
  37   18   47 1
  38   19   20 1
  39   19   48 1
  40   19   49 1
  41   20   21 1
  42   21   22 1
  43   21   50 1
  44   21   51 1
  45   22   52 1
  46   22   53 1
  47   23   24 1
  48   23   54 1
  49   24   25 ar
  50   24   29 ar
  51   25   26 ar
  52   25   55 1
  53   26   27 ar
  54   26   56 1
  55   27   28 ar
  56   27   30 1
  57   28   29 ar
  58   28   57 1
  59   30   31 2
  60   30   32 1
  61   32   58 1

#	End of record

