#	Name: ASD03090644
#	Creating user name:	WinNT
#	Creation time:	15. 06. 2019 20:29

#	Modifying user name:	WinNT
#	Modification time:	15. 06. 2019 20:29

#	Program:	/corina/corina34_cracker 3.40 0067  02.08.2006

@<TRIPOS>MOLECULE
ASD03090644
  38   39    0    0    0
SMALL
NO_CHARGES


@<TRIPOS>ATOM
   1 N1            -0.1474     1.3406     0.5515 N.am    
   2 C2            -0.1350    -0.0071     0.5596 C.2     
   3 O3             0.7973    -0.6034     1.0634 O.2     
   4 N4            -1.1558    -0.6938     0.0094 N.am    
   5 C5            -1.0872    -2.0918    -0.0919 C.ar    
   6 C6            -2.2451    -2.8562     0.0244 C.ar    
   7 C7            -2.1767    -4.2361    -0.0756 C.ar    
   8 C8            -0.9558    -4.8560    -0.2911 C.ar    
   9 C9             0.2012    -4.0930    -0.4074 C.ar    
  10 C10            0.1333    -2.7123    -0.3137 C.ar    
  11 O11            1.3994    -4.7024    -0.6184 O.3     
  12 C12            2.5465    -3.8574    -0.7280 C.3     
  13 O13           -0.8891    -6.2115    -0.3883 O.3     
  14 C14           -2.1162    -6.9323    -0.2588 C.3     
  15 O15           -3.4435    -2.2480     0.2368 O.3     
  16 C16           -4.5900    -3.0939     0.3461 C.3     
  17 S17            1.0387     3.7556     1.1891 S.3     
  18 C18            0.9060     2.0491     1.1192 C.2     
  19 N19            1.9521     1.5267     1.6849 N.2     
  20 N20            2.8202     2.3148     2.1530 N.2     
  21 C21            2.5831     3.5813     2.0235 C.2     
  22 C22            3.4676     4.7045     2.5001 C.3     
  23 F23            4.6572     4.1759     3.0126 F       
  24 F24            3.7589     5.5554     1.4285 F       
  25 F25            2.8078     5.4249     3.5016 F       
  26 H26           -0.8892     1.8163     0.1461 H       
  27 H27           -1.9380    -0.2217    -0.3166 H       
  28 H28           -3.0748    -4.8292     0.0146 H       
  29 H29            1.0311    -2.1197    -0.4088 H       
  30 H30            3.4335    -4.4686    -0.8946 H       
  31 H31            2.4147    -3.1725    -1.5657 H       
  32 H32            2.6665    -3.2863     0.1927 H       
  33 H33           -1.9221    -8.0005    -0.3558 H       
  34 H34           -2.5550    -6.7300     0.7183 H       
  35 H35           -2.8075    -6.6163    -1.0400 H       
  36 H36           -5.4773    -2.4834     0.5139 H       
  37 H37           -4.7101    -3.6640    -0.5751 H       
  38 H38           -4.4572    -3.7795     1.1830 H       
@<TRIPOS>BOND
   1    1    2 am
   2    1   18 1
   3    1   26 1
   4    2    3 2
   5    2    4 am
   6    4    5 1
   7    4   27 1
   8    5    6 ar
   9    5   10 ar
  10    6    7 ar
  11    6   15 1
  12    7    8 ar
  13    7   28 1
  14    8    9 ar
  15    8   13 1
  16    9   10 ar
  17    9   11 1
  18   10   29 1
  19   11   12 1
  20   12   30 1
  21   12   31 1
  22   12   32 1
  23   13   14 1
  24   14   33 1
  25   14   34 1
  26   14   35 1
  27   15   16 1
  28   16   36 1
  29   16   37 1
  30   16   38 1
  31   17   18 1
  32   17   21 1
  33   18   19 2
  34   19   20 1
  35   20   21 2
  36   21   22 1
  37   22   23 1
  38   22   24 1
  39   22   25 1

#	End of record

