#	Name: ASD00990034
#	Creating user name:	WinNT
#	Creation time:	15. 06. 2019 18:54

#	Modifying user name:	WinNT
#	Modification time:	15. 06. 2019 18:54

#	Program:	/corina/corina34_cracker 3.40 0067  02.08.2006

@<TRIPOS>MOLECULE
ASD00990034
  25   26    0    0    0
SMALL
NO_CHARGES


@<TRIPOS>ATOM
   1 C1            -0.0168     1.3844     0.0097 C.ar    
   2 C2             0.0021    -0.0041     0.0020 C.ar    
   3 C3            -1.1811    -0.7159     0.0090 C.ar    
   4 C4            -2.3936    -0.0444     0.0242 C.ar    
   5 C5            -2.4140     1.3501     0.0324 C.ar    
   6 C6            -1.2251     2.0623     0.0306 C.ar    
   7 O7            -3.6829    -0.4657     0.0346 O.3     
   8 C8            -4.4954     0.6023     0.0488 C.2     
   9 N9            -3.7560     1.7290     0.0478 N.am    
  10 O10           -5.7106     0.5599     0.0600 O.2     
  11 C11           -4.2685     3.1014     0.0603 C.3     
  12 C12           -4.4311     3.5640     1.4853 C.2     
  13 O13           -4.1480     2.8233     2.3970 O.2     
  14 O14           -4.8905     4.7988     1.7418 O.3     
  15 O15            1.1517     2.0795     0.0022 O.3     
  16 C16            2.3601     1.3168    -0.0134 C.3     
  17 F17            2.3916     0.5164    -1.1604 F       
  18 F18            3.4584     2.1834    -0.0192 F       
  19 F19            2.4134     0.5041     1.1241 F       
  20 H20            0.9457    -0.5292    -0.0098 H       
  21 H21           -1.1618    -1.7957     0.0023 H       
  22 H22           -1.2405     3.1421     0.0373 H       
  23 H23           -3.5666     3.7561    -0.4563 H       
  24 H24           -5.2340     3.1333    -0.4445 H       
  25 H25           -4.9779     5.0504     2.6714 H       
@<TRIPOS>BOND
   1    1    2 ar
   2    1   15 1
   3    1    6 ar
   4    2    3 ar
   5    2   20 1
   6    3    4 ar
   7    3   21 1
   8    4    5 ar
   9    4    7 1
  10    5    6 ar
  11    5    9 1
  12    6   22 1
  13    7    8 1
  14    8    9 am
  15    8   10 2
  16    9   11 1
  17   11   12 1
  18   11   23 1
  19   11   24 1
  20   12   13 2
  21   12   14 1
  22   14   25 1
  23   15   16 1
  24   16   17 1
  25   16   18 1
  26   16   19 1

#	End of record

