#	Name: ASD01141064
#	Creating user name:	WinNT
#	Creation time:	15. 06. 2019 19:01

#	Modifying user name:	WinNT
#	Modification time:	15. 06. 2019 19:01

#	Program:	/corina/corina34_cracker 3.40 0067  02.08.2006

@<TRIPOS>MOLECULE
ASD01141064
  40   41    0    0    0
SMALL
NO_CHARGES


@<TRIPOS>ATOM
   1 C1             0.3534     0.9349    -0.6083 C.2     
   2 C2            -0.1246    -0.2877     0.0457 C.2     
   3 C3             0.6895     0.9202    -2.0479 C.ar    
   4 O4             0.4685     1.9629     0.0330 O.2     
   5 C5             0.7676    -1.4469     0.1774 C.2     
   6 C6            -1.4144    -0.3490     0.5379 C.2     
   7 C7             0.4409    -0.2200    -2.8146 C.ar    
   8 C8             1.2520     2.0491    -2.6488 C.ar    
   9 O9             0.3329    -2.5053     0.5912 O.2     
  10 N10            2.0679    -1.3383    -0.1601 N.am    
  11 N11           -1.7916    -1.3862     1.3149 N.pl3   
  12 C12            0.7564    -0.2270    -4.1569 C.ar    
  13 C13            1.5629     2.0278    -3.9946 C.ar    
  14 Cl14           1.5588     3.4748    -1.7070 Cl      
  15 C15           -3.1236    -1.5067     1.7217 C.ar    
  16 C16            1.3184     0.8927    -4.7456 C.ar    
  17 C17           -4.0613    -0.5628     1.3222 C.ar    
  18 C18           -3.5132    -2.5736     2.5214 C.ar    
  19 C19           -5.3765    -0.6845     1.7251 C.ar    
  20 C20           -4.8298    -2.6904     2.9213 C.ar    
  21 C21           -5.7608    -1.7457     2.5261 C.ar    
  22 Cl22          -7.4149    -1.8953     3.0312 Cl      
  23 H23            2.4306    -0.4778    -0.4224 H       
  24 H24           -1.1384    -2.0480     1.5911 H       
  25 C25            4.3736    -2.1049    -0.4383 C.3     
  26 C26            2.9335    -2.5199    -0.1307 C.3     
  27 H27           -2.1206     0.4329     0.3009 H       
  28 H28            0.0028    -1.0948    -2.3572 H       
  29 H29            0.5683    -1.1100    -4.7497 H       
  30 H30            1.9975     2.8995    -4.4612 H       
  31 H31            1.5633     0.8812    -5.7975 H       
  32 H32           -3.7619     0.2657     0.6974 H       
  33 H33           -2.7872    -3.3113     2.8298 H       
  34 H34           -6.1058     0.0492     1.4151 H       
  35 H35           -5.1333    -3.5197     3.5431 H       
  36 H36            5.0020    -2.9932    -0.5021 H       
  37 H37            4.4028    -1.5703    -1.3878 H       
  38 H38            4.7421    -1.4554     0.3557 H       
  39 H39            2.8904    -2.9774     0.8577 H       
  40 H40            2.5946    -3.2372    -0.8782 H       
@<TRIPOS>BOND
   1    1    2 1
   2    1    3 1
   3    1    4 2
   4    2    5 1
   5    2    6 2
   6    3    7 ar
   7    3    8 ar
   8    5   10 am
   9    5    9 2
  10    6   11 1
  11    6   27 1
  12    7   12 ar
  13    7   28 1
  14    8   13 ar
  15    8   14 1
  16   10   23 1
  17   10   26 1
  18   11   24 1
  19   11   15 1
  20   12   16 ar
  21   12   29 1
  22   13   16 ar
  23   13   30 1
  24   15   18 ar
  25   15   17 ar
  26   16   31 1
  27   17   19 ar
  28   17   32 1
  29   18   20 ar
  30   18   33 1
  31   19   21 ar
  32   19   34 1
  33   20   21 ar
  34   20   35 1
  35   21   22 1
  36   25   26 1
  37   25   36 1
  38   25   37 1
  39   25   38 1
  40   26   39 1
  41   26   40 1

#	End of record

