#	Name: ASD02500781
#	Creating user name:	WinNT
#	Creation time:	15. 06. 2019 20:23

#	Modifying user name:	WinNT
#	Modification time:	15. 06. 2019 20:23

#	Program:	/corina/corina34_cracker 3.40 0067  02.08.2006

@<TRIPOS>MOLECULE
ASD02500781
  48   51    0    0    0
SMALL
NO_CHARGES


@<TRIPOS>ATOM
   1 C1            -0.0167     1.3800     0.0096 C.ar    
   2 C2             0.0021    -0.0041     0.0020 C.ar    
   3 C3             1.2108    -0.6795    -0.0132 C.ar    
   4 C4             2.3982     0.0278    -0.0207 C.ar    
   5 C5             2.3807     1.4097    -0.0131 C.ar    
   6 C6             1.1731     2.0873     0.0021 C.ar    
   7 S7            -1.5540     2.2408     0.0216 S.o2    
   8 O8            -1.2961     3.5302    -0.5171 O.2     
   9 O9            -2.5173     1.3494    -0.5231 O.2     
  10 N10           -1.9742     2.4717     1.6067 N.am    
  11 F11            1.1563     3.4381     0.0090 F       
  12 F12           -1.1584    -0.6957     0.0098 F       
  13 C13           -1.1507     3.3260     2.4658 C.3     
  14 N14           -2.3277     5.2758     5.0157 N.am    
  15 C15           -1.1223     4.4694     4.7712 C.3     
  16 C16           -1.9298     3.6748     3.7356 C.3     
  17 C17           -2.7437     4.9725     3.6381 C.3     
  18 S18           -2.9473     6.1392     6.2857 S.o2    
  19 O19           -4.3502     6.2154     6.0726 O.2     
  20 O20           -2.3685     5.5927     7.4628 O.2     
  21 O21           -0.8769    11.6391     5.8403 O.3     
  22 C22           -1.3651    10.3720     5.9331 C.ar    
  23 C23           -2.5606    10.0232     5.3153 C.ar    
  24 O24           -3.2679    10.9396     4.5993 O.3     
  25 C25           -2.9472    12.3170     4.8226 C.3     
  26 C26           -1.4195    12.4634     4.8031 C.3     
  27 C27           -3.0419     8.7276     5.4262 C.ar    
  28 C28           -2.3328     7.7847     6.1468 C.ar    
  29 C29           -1.1430     8.1308     6.7590 C.ar    
  30 C30           -0.6585     9.4212     6.6537 C.ar    
  31 H31            1.2257    -1.7594    -0.0187 H       
  32 H32            3.3405    -0.4999    -0.0322 H       
  33 H33            3.3091     1.9614    -0.0186 H       
  34 H34           -2.7657     2.0413     1.9663 H       
  35 H35           -0.2361     2.7973     2.7344 H       
  36 H36           -0.8974     4.2419     1.9319 H       
  37 H37           -0.3002     5.0383     4.3370 H       
  38 H38           -0.8159     3.8749     5.6318 H       
  39 H39           -2.4789     2.8292     4.1500 H       
  40 H40           -3.8160     4.8057     3.5352 H       
  41 H41           -2.3535     5.6754     2.9021 H       
  42 H42           -3.3852    12.9290     4.0341 H       
  43 H43           -3.3346    12.6323     5.7914 H       
  44 H44           -1.1476    13.5040     4.9805 H       
  45 H45           -1.0315    12.1413     3.8367 H       
  46 H46           -3.9716     8.4547     4.9491 H       
  47 H47           -0.5910     7.3918     7.3208 H       
  48 H48            0.2715     9.6890     7.1330 H       
@<TRIPOS>BOND
   1    1    2 ar
   2    1    6 ar
   3    1    7 1
   4    2    3 ar
   5    2   12 1
   6    3    4 ar
   7    3   31 1
   8    4    5 ar
   9    4   32 1
  10    5    6 ar
  11    5   33 1
  12    6   11 1
  13    7    8 2
  14    7    9 2
  15    7   10 am
  16   10   13 1
  17   10   34 1
  18   13   16 1
  19   13   35 1
  20   13   36 1
  21   14   15 1
  22   14   17 1
  23   14   18 am
  24   15   16 1
  25   15   37 1
  26   15   38 1
  27   16   17 1
  28   16   39 1
  29   17   40 1
  30   17   41 1
  31   18   19 2
  32   18   20 2
  33   18   28 1
  34   21   22 1
  35   21   26 1
  36   22   23 ar
  37   22   30 ar
  38   23   24 1
  39   23   27 ar
  40   24   25 1
  41   25   26 1
  42   25   42 1
  43   25   43 1
  44   26   44 1
  45   26   45 1
  46   27   28 ar
  47   27   46 1
  48   28   29 ar
  49   29   30 ar
  50   29   47 1
  51   30   48 1

#	End of record

