#	Name: ASD03240914
#	Creating user name:	WinNT
#	Creation time:	15. 06. 2019 20:35

#	Modifying user name:	WinNT
#	Modification time:	15. 06. 2019 20:35

#	Program:	/corina/corina34_cracker 3.40 0067  02.08.2006

@<TRIPOS>MOLECULE
ASD03240914
  69   75    0    0    0
SMALL
NO_CHARGES


@<TRIPOS>ATOM
   1 C1            -0.0188     1.5336     0.0105 C.3     
   2 C2             0.0021    -0.0041     0.0020 C.3     
   3 C3             1.3815     0.0967    -0.6702 C.3     
   4 C4             1.5179     1.4762    -0.0045 C.3     
   5 O5            -0.5818     2.1049    -1.1721 O.3     
   6 C6             2.3746    -0.9181    -0.1653 C.ar    
   7 C7             3.3681    -1.3872    -1.0061 C.ar    
   8 C8             4.2807    -2.3160    -0.5495 C.ar    
   9 C9             4.2000    -2.7820     0.7628 C.ar    
  10 C10            3.1960    -2.3051     1.6056 C.ar    
  11 C11            2.2926    -1.3725     1.1389 C.ar    
  12 N12            6.9707    -6.5920    -0.0343 N.pl3   
  13 C13            7.8733    -7.5238     0.4044 C.2     
  14 N14            8.3301    -7.5328     1.6701 N.2     
  15 C15            7.9391    -6.6528     2.5551 C.2     
  16 C16            6.9764    -5.6270     2.1593 C.ar    
  17 C17            6.5204    -4.6593     3.0608 C.ar    
  18 C18            5.6043    -3.7197     2.5995 C.ar    
  19 C19            5.1759    -3.7791     1.2589 C.ar    
  20 N20            5.6297    -4.7109     0.4342 N.ar    
  21 C21            6.5010    -5.6225     0.8307 C.ar    
  22 C22            8.1545    -8.3521    -0.6711 C.2     
  23 C23            7.4043    -7.9002    -1.7626 C.2     
  24 N24            6.6954    -6.8550    -1.3818 N.2     
  25 C25            5.0842    -2.6697     3.5079 C.ar    
  26 C26            4.5762    -3.0159     4.7590 C.ar    
  27 C27            4.0938    -2.0342     5.6005 C.ar    
  28 C28            4.1137    -0.7089     5.2046 C.ar    
  29 C29            4.6162    -0.3596     3.9640 C.ar    
  30 C30            5.1065    -1.3320     3.1164 C.ar    
  31 C31            7.4023    -8.5002    -3.1201 C.ar    
  32 C32            6.6063    -7.9524    -4.1242 C.ar    
  33 C33            6.6068    -8.5117    -5.3849 C.ar    
  34 C34            7.3988    -9.6196    -5.6539 C.ar    
  35 C35            8.1924   -10.1678    -4.6554 C.ar    
  36 C36            8.2007    -9.6089    -3.3945 C.ar    
  37 O37            7.3969   -10.1689    -6.8967 O.3     
  38 C38            8.2353   -11.3074    -7.1041 C.3     
  39 C39           -0.5973     2.1316     1.2944 C.3     
  40 N40            1.3186     0.1546    -2.1367 N.3     
  41 H41            0.0329    -0.4458     0.9980 H       
  42 H42           -0.7629    -0.4476    -0.6353 H       
  43 H43            1.9766     2.2276    -0.6471 H       
  44 H44            1.9632     1.4391     0.9897 H       
  45 H45           -0.5977     3.0718    -1.1727 H       
  46 H46            3.4293    -1.0259    -2.0220 H       
  47 H47            5.0555    -2.6817    -1.2070 H       
  48 H48            3.1282    -2.6625     2.6226 H       
  49 H49            1.5173    -0.9995     1.7917 H       
  50 H50            8.3221    -6.6839     3.5644 H       
  51 H51            6.8691    -4.6420     4.0828 H       
  52 H52            8.8306    -9.1943    -0.6673 H       
  53 H53            4.5598    -4.0503     5.0691 H       
  54 H54            3.6997    -2.3012     6.5700 H       
  55 H55            3.7352     0.0560     5.8664 H       
  56 H56            4.6286     0.6766     3.6598 H       
  57 H57            5.5031    -1.0577     2.1500 H       
  58 H58            5.9894    -7.0908    -3.9154 H       
  59 H59            5.9901    -8.0875    -6.1635 H       
  60 H60            8.8073   -11.0300    -4.8674 H       
  61 H61            8.8216   -10.0330    -2.6194 H       
  62 H62            9.2721   -11.0361    -6.9053 H       
  63 H63            7.9336   -12.1085    -6.4294 H       
  64 H64            8.1397   -11.6459    -8.1358 H       
  65 H65            0.0010     1.8098     2.1469 H       
  66 H66           -0.5800     3.2195     1.2285 H       
  67 H67           -1.6249     1.7917     1.4227 H       
  68 H68            2.2430     0.2199    -2.5360 H       
  69 H69            0.8193    -0.6393    -2.5089 H       
@<TRIPOS>BOND
   1    1    2 1
   2    1    4 1
   3    1    5 1
   4    1   39 1
   5    2    3 1
   6    2   41 1
   7    2   42 1
   8    3    4 1
   9    3    6 1
  10    3   40 1
  11    4   43 1
  12    4   44 1
  13    5   45 1
  14    6    7 ar
  15    6   11 ar
  16    7    8 ar
  17    7   46 1
  18    8    9 ar
  19    8   47 1
  20    9   10 ar
  21    9   19 1
  22   10   11 ar
  23   10   48 1
  24   11   49 1
  25   12   13 1
  26   12   21 1
  27   12   24 1
  28   13   14 1
  29   13   22 2
  30   14   15 2
  31   15   16 1
  32   15   50 1
  33   16   17 ar
  34   16   21 ar
  35   17   18 ar
  36   17   51 1
  37   18   19 ar
  38   18   25 1
  39   19   20 ar
  40   20   21 ar
  41   22   23 1
  42   22   52 1
  43   23   24 2
  44   23   31 1
  45   25   26 ar
  46   25   30 ar
  47   26   27 ar
  48   26   53 1
  49   27   28 ar
  50   27   54 1
  51   28   29 ar
  52   28   55 1
  53   29   30 ar
  54   29   56 1
  55   30   57 1
  56   31   32 ar
  57   31   36 ar
  58   32   33 ar
  59   32   58 1
  60   33   34 ar
  61   33   59 1
  62   34   35 ar
  63   34   37 1
  64   35   36 ar
  65   35   60 1
  66   36   61 1
  67   37   38 1
  68   38   62 1
  69   38   63 1
  70   38   64 1
  71   39   65 1
  72   39   66 1
  73   39   67 1
  74   40   68 1
  75   40   69 1

#	End of record

