#	Name: ASD08151041
#	Creating user name:	WinNT
#	Creation time:	15. 06. 2019 21:17

#	Modifying user name:	WinNT
#	Modification time:	15. 06. 2019 21:17

#	Program:	/corina/corina34_cracker 3.40 0067  02.08.2006

@<TRIPOS>MOLECULE
ASD08151041
  41   43    0    0    0
SMALL
NO_CHARGES


@<TRIPOS>ATOM
   1 N1             0.3460     1.2188     0.5456 N.ar    
   2 C2             0.4417    -0.0766     0.7221 C.ar    
   3 C3             1.6710    -0.6967     0.9358 C.ar    
   4 C4             2.8146     0.0500     0.9646 C.ar    
   5 C5             2.7063     1.4403     0.7741 C.ar    
   6 C6             3.8459     2.2673     0.7917 C.ar    
   7 C7             3.7213     3.6062     0.6055 C.ar    
   8 C8             2.4591     4.1902     0.3932 C.ar    
   9 C9             1.3104     3.4002     0.3704 C.ar    
  10 C10            1.4257     2.0042     0.5624 C.ar    
  11 C11            2.3503     5.6456     0.1942 C.2     
  12 O12            1.3990     6.2521     0.6485 O.2     
  13 N13            3.3050     6.3052    -0.4913 N.am    
  14 C14            3.1422     7.7309    -0.7863 C.3     
  15 O15            4.4654     5.6202    -0.9264 O.3     
  16 C16            4.3876     5.1405    -2.2702 C.3     
  17 N17            0.0696     3.9768     0.1618 N.3     
  18 C18           -0.5727     3.4262    -1.0458 C.3     
  19 C19           -1.9377     2.8494    -0.6150 C.3     
  20 C20           -2.2389     3.6112     0.7025 C.3     
  21 C21           -0.8233     3.7451     1.3171 C.3     
  22 O22           -2.9365     3.1267    -1.5986 O.3     
  23 Cl23           5.4152     1.5724     1.0528 Cl      
  24 H24           -0.4549    -0.6783     0.7016 H       
  25 H25            1.7196    -1.7661     1.0789 H       
  26 H26            3.7759    -0.4139     1.1295 H       
  27 H27            4.6021     4.2310     0.6209 H       
  28 H28            3.5722     8.3209     0.0231 H       
  29 H29            3.6516     7.9693    -1.7200 H       
  30 H30            2.0815     7.9635    -0.8815 H       
  31 H31            3.5517     4.4467    -2.3605 H       
  32 H32            4.2371     5.9808    -2.9479 H       
  33 H33            5.3146     4.6279    -2.5273 H       
  34 H34           -0.7198     4.2173    -1.7810 H       
  35 H35            0.0475     2.6354    -1.4678 H       
  36 H36           -1.8626     1.7775    -0.4319 H       
  37 H37           -2.6697     4.5911     0.4972 H       
  38 H38           -2.8923     3.0271     1.3506 H       
  39 H39           -0.5453     2.8263     1.8333 H       
  40 H40           -0.7855     4.5924     2.0018 H       
  41 H41           -3.8133     2.7852    -1.3759 H       
@<TRIPOS>BOND
   1    1    2 ar
   2    1   10 ar
   3    2    3 ar
   4    2   24 1
   5    3    4 ar
   6    3   25 1
   7    4    5 ar
   8    4   26 1
   9    5    6 ar
  10    5   10 ar
  11    6    7 ar
  12    6   23 1
  13    7    8 ar
  14    7   27 1
  15    8    9 ar
  16    8   11 1
  17    9   10 ar
  18    9   17 1
  19   11   12 2
  20   11   13 am
  21   13   14 1
  22   13   15 1
  23   14   28 1
  24   14   29 1
  25   14   30 1
  26   15   16 1
  27   16   31 1
  28   16   32 1
  29   16   33 1
  30   17   18 1
  31   17   21 1
  32   18   19 1
  33   18   34 1
  34   18   35 1
  35   19   20 1
  36   19   22 1
  37   19   36 1
  38   20   21 1
  39   20   37 1
  40   20   38 1
  41   21   39 1
  42   21   40 1
  43   22   41 1

#	End of record

