#	Name: ASD01870442
#	Creating user name:	WinNT
#	Creation time:	15. 06. 2019 19:39

#	Modifying user name:	WinNT
#	Modification time:	15. 06. 2019 19:39

#	Program:	/corina/corina34_cracker 3.40 0067  02.08.2006

@<TRIPOS>MOLECULE
ASD01870442
  58   61    0    0    0
SMALL
NO_CHARGES


@<TRIPOS>ATOM
   1 N1            -0.6067     1.2333     0.3954 N.am    
   2 C2            -0.7713    -0.0969     0.5370 C.2     
   3 C3            -2.1527    -0.6694     0.7246 C.3     
   4 O4             0.1922    -0.8330     0.5134 O.2     
   5 C5            -2.1738    -2.2017     0.8714 C.3     
   6 N6            -3.1662    -1.9851     1.9419 N.am    
   7 C7            -2.6503    -0.6231     2.1806 C.3     
   8 S8            -4.3738    -2.9019     2.6079 S.o2    
   9 C9            -3.5695    -3.7891     3.9704 C.3     
  10 O10           -5.3001    -1.9492     3.1113 O.2     
  11 O11           -4.7402    -3.8040     1.5729 O.2     
  12 C12           -4.5944    -4.6815     4.6734 C.3     
  13 C13            0.6769     1.9203     0.2064 C.3     
  14 C14            0.4007     3.4338     0.1609 C.3     
  15 C15           -1.0121     3.5636     0.8156 C.3     
  16 C16           -1.6850     2.2352     0.3984 C.3     
  17 C17            1.3242     4.1437     1.1677 C.3     
  18 N18            0.6215     4.1971     2.4609 N.3     
  19 C19           -0.6760     3.5061     2.3220 C.3     
  20 C20            1.3881     3.6207     3.4693 C.ar    
  21 C21            2.7759     3.7594     3.4810 C.ar    
  22 C22            3.4992     3.1728     4.4980 C.ar    
  23 N23            2.8945     2.4880     5.4507 N.ar    
  24 C24            1.5838     2.3341     5.4748 C.ar    
  25 C25            0.7881     2.8942     4.4976 C.ar    
  26 C26           -5.1633    -5.6902     3.6734 C.3     
  27 C27           -3.9160    -5.4298     5.8226 C.3     
  28 C28           -5.7288    -3.8169     5.2270 C.3     
  29 H29           -2.8727    -0.2880     0.0006 H       
  30 H30           -2.5734    -2.7211     0.0004 H       
  31 H31           -1.2320    -2.6223     1.2239 H       
  32 H32           -1.8485    -0.5800     2.9178 H       
  33 H33           -3.4304     0.1179     2.3549 H       
  34 H34           -2.7613    -4.4051     3.5760 H       
  35 H35           -3.1641    -3.0706     4.6828 H       
  36 H36            1.3435     1.6917     1.0379 H       
  37 H37            1.1322     1.6000    -0.7307 H       
  38 H38            0.4497     3.8474    -0.8463 H       
  39 H39           -1.5661     4.4506     0.5084 H       
  40 H40           -2.1224     2.3302    -0.5954 H       
  41 H41           -2.4505     1.9568     1.1228 H       
  42 H42            2.2533     3.5838     1.2751 H       
  43 H43            1.5393     5.1548     0.8222 H       
  44 H44           -1.4425     4.0226     2.8997 H       
  45 H45           -0.5891     2.4703     2.6500 H       
  46 H46            3.2770     4.3180     2.7043 H       
  47 H47            4.5743     3.2746     4.5149 H       
  48 H48            1.1283     1.7658     6.2723 H       
  49 H49           -0.2838     2.7647     4.5234 H       
  50 H50           -4.3551    -6.3061     3.2790 H       
  51 H51           -5.8934    -6.3259     4.1742 H       
  52 H52           -5.6466    -5.1571     2.8547 H       
  53 H53           -3.5106    -4.7113     6.5349 H       
  54 H54           -4.6461    -6.0656     6.3234 H       
  55 H55           -3.1078    -6.0458     5.4281 H       
  56 H56           -6.2121    -3.2838     4.4083 H       
  57 H57           -6.4589    -4.4527     5.7278 H       
  58 H58           -5.3235    -3.0984     5.9394 H       
@<TRIPOS>BOND
   1    1    2 am
   2    1   13 1
   3    1   16 1
   4    2    3 1
   5    2    4 2
   6    3    5 1
   7    3    7 1
   8    3   29 1
   9    5    6 1
  10    5   30 1
  11    5   31 1
  12    6    7 1
  13    6    8 am
  14    7   32 1
  15    7   33 1
  16    8    9 1
  17    8   10 2
  18    8   11 2
  19    9   12 1
  20    9   34 1
  21    9   35 1
  22   12   26 1
  23   12   27 1
  24   12   28 1
  25   13   14 1
  26   13   36 1
  27   13   37 1
  28   14   15 1
  29   14   17 1
  30   14   38 1
  31   15   16 1
  32   15   19 1
  33   15   39 1
  34   16   40 1
  35   16   41 1
  36   17   18 1
  37   17   42 1
  38   17   43 1
  39   18   19 1
  40   18   20 1
  41   19   44 1
  42   19   45 1
  43   20   21 ar
  44   20   25 ar
  45   21   22 ar
  46   21   46 1
  47   22   23 ar
  48   22   47 1
  49   23   24 ar
  50   24   25 ar
  51   24   48 1
  52   25   49 1
  53   26   50 1
  54   26   51 1
  55   26   52 1
  56   27   53 1
  57   27   54 1
  58   27   55 1
  59   28   56 1
  60   28   57 1
  61   28   58 1

#	End of record

