#	Name: ASD03731652
#	Creating user name:	WinNT
#	Creation time:	15. 06. 2019 20:46

#	Modifying user name:	WinNT
#	Modification time:	15. 06. 2019 20:46

#	Program:	/corina/corina34_cracker 3.40 0067  02.08.2006

@<TRIPOS>MOLECULE
ASD03731652
  36   37    0    0    0
SMALL
NO_CHARGES


@<TRIPOS>ATOM
   1 C1            -0.1364     1.4672     0.0333 C.2     
   2 C2            -0.0852    -0.0063     0.0192 C.ar    
   3 C3             1.1400    -0.6648    -0.1384 C.ar    
   4 C4             1.1827    -2.0445    -0.1511 C.ar    
   5 C5             0.0129    -2.7784    -0.0078 C.ar    
   6 C6            -1.2080    -2.1272     0.1491 C.ar    
   7 C7            -1.2596    -0.7503     0.1688 C.ar    
   8 O8             0.8867     2.1124    -0.0920 O.2     
   9 N9            -1.3178     2.0991     0.1796 N.am    
  10 O10            0.0593    -4.1350    -0.0213 O.3     
  11 C11           -0.1522    -4.7688    -1.2045 C.ar    
  12 C12           -0.0463    -6.1504    -1.2816 C.ar    
  13 C13           -0.2622    -6.7922    -2.4854 C.ar    
  14 C14           -0.5832    -6.0593    -3.6133 C.ar    
  15 C15           -0.6892    -4.6829    -3.5393 C.ar    
  16 C16           -0.4799    -4.0364    -2.3363 C.ar    
  17 C17            0.3044    -6.9496    -0.0531 C.3     
  18 F18            0.3516    -8.3093    -0.3791 F       
  19 F19            1.5531    -6.5417     0.4279 F       
  20 F20           -0.6662    -6.7399     0.9325 F       
  21 S21           -1.3753     3.7540     0.1955 S.o2    
  22 O22           -2.7505     4.0550     0.3893 O.2     
  23 O23           -0.4004     4.1293     1.1588 O.2     
  24 C24           -0.8456     4.2414    -1.4696 C.3     
  25 F25           -2.3431    -2.8466     0.2876 F       
  26 F26            2.2786     0.0488    -0.2783 F       
  27 H27            2.1273    -2.5537    -0.2729 H       
  28 H28           -2.2064    -0.2464     0.2954 H       
  29 H29           -2.1345     1.5845     0.2755 H       
  30 H30           -0.1800    -7.8674    -2.5459 H       
  31 H31           -0.7509    -6.5630    -4.5538 H       
  32 H32           -0.9396    -4.1128    -4.4217 H       
  33 H33           -0.5673    -2.9615    -2.2780 H       
  34 H34           -1.5278     3.8176    -2.2065 H       
  35 H35           -0.8536     5.3284    -1.5498 H       
  36 H36            0.1631     3.8710    -1.6529 H       
@<TRIPOS>BOND
   1    1    2 1
   2    1    8 2
   3    1    9 am
   4    2    3 ar
   5    2    7 ar
   6    3    4 ar
   7    3   26 1
   8    4    5 ar
   9    4   27 1
  10    5    6 ar
  11    5   10 1
  12    6    7 ar
  13    6   25 1
  14    7   28 1
  15    9   21 am
  16    9   29 1
  17   10   11 1
  18   11   12 ar
  19   11   16 ar
  20   12   13 ar
  21   12   17 1
  22   13   14 ar
  23   13   30 1
  24   14   15 ar
  25   14   31 1
  26   15   16 ar
  27   15   32 1
  28   16   33 1
  29   17   18 1
  30   17   19 1
  31   17   20 1
  32   21   22 2
  33   21   23 2
  34   21   24 1
  35   24   34 1
  36   24   35 1
  37   24   36 1

#	End of record

