#	Name: ASD01913092
#	Creating user name:	WinNT
#	Creation time:	15. 06. 2019 20:00

#	Modifying user name:	WinNT
#	Modification time:	15. 06. 2019 20:00

#	Program:	/corina/corina34_cracker 3.40 0067  02.08.2006

@<TRIPOS>MOLECULE
ASD01913092
  28   29    0    0    0
SMALL
NO_CHARGES


@<TRIPOS>ATOM
   1 N1            -0.0169     1.3965     0.0097 N.2     
   2 N2             0.0021    -0.0041     0.0020 N.pl3   
   3 C3             1.2284     1.8226     0.0001 C.2     
   4 C4             2.0722     0.6950    -0.0140 C.2     
   5 C5             1.2909    -0.4070    -0.0125 C.2     
   6 C6             1.7727    -1.8348    -0.0243 C.3     
   7 C7             1.6660     3.2408     0.0031 C.ar    
   8 C8             0.7202     4.2638     0.0177 C.ar    
   9 C9             1.1315     5.5809     0.0209 C.ar    
  10 C10            2.4827     5.8868     0.0097 C.ar    
  11 C11            3.4265     4.8727    -0.0048 C.ar    
  12 C12            3.0239     3.5528    -0.0028 C.ar    
  13 C13            0.8239    -2.7002     0.8075 C.3     
  14 F14            2.8811     7.1777     0.0124 F       
  15 C15            1.8034    -2.3508    -1.4643 C.3     
  16 H16           -0.7755    -0.5839     0.0063 H       
  17 H17            3.1521     0.7089    -0.0249 H       
  18 H18            2.7753    -1.8835     0.4005 H       
  19 H19           -0.3333     4.0262     0.0261 H       
  20 H20            0.3990     6.3745     0.0318 H       
  21 H21            4.4788     5.1155    -0.0136 H       
  22 H22            3.7603     2.7629    -0.0138 H       
  23 H23           -0.1788    -2.6515     0.3827 H       
  24 H24            1.1724    -3.7329     0.7989 H       
  25 H25            0.8020    -2.3326     1.8334 H       
  26 H26            2.4793    -1.7343    -2.0569 H       
  27 H27            2.1519    -3.3836    -1.4729 H       
  28 H28            0.8007    -2.3022    -1.8891 H       
@<TRIPOS>BOND
   1    1    2 1
   2    1    3 2
   3    2    5 1
   4    2   16 1
   5    3    4 1
   6    3    7 1
   7    4    5 2
   8    4   17 1
   9    5    6 1
  10    6   13 1
  11    6   15 1
  12    6   18 1
  13    7    8 ar
  14    7   12 ar
  15    8    9 ar
  16    8   19 1
  17    9   10 ar
  18    9   20 1
  19   10   11 ar
  20   10   14 1
  21   11   12 ar
  22   11   21 1
  23   12   22 1
  24   13   23 1
  25   13   24 1
  26   13   25 1
  27   15   26 1
  28   15   27 1
  29   15   28 1

#	End of record

