#	Name: ASD03740244
#	Creating user name:	WinNT
#	Creation time:	15. 06. 2019 20:46

#	Modifying user name:	WinNT
#	Modification time:	15. 06. 2019 20:46

#	Program:	/corina/corina34_cracker 3.40 0067  02.08.2006

@<TRIPOS>MOLECULE
ASD03740244
  41   43    0    0    0
SMALL
NO_CHARGES


@<TRIPOS>ATOM
   1 Cl1           -6.2114    -0.9116    -0.4397 Cl      
   2 C2            -0.4273     1.3769     0.7753 C.ar    
   3 N3            -0.8874     0.3031     1.5269 N.pl3   
   4 O4            -2.9868     0.4492    -0.2082 O.2     
   5 C5             0.8980     1.7812     0.8740 C.ar    
   6 N6            -3.6796     2.5566    -0.3221 N.am    
   7 C7             1.3530     2.8484     0.1269 C.ar    
   8 C8             0.4946     3.5243    -0.7266 C.ar    
   9 C9            -0.8239     3.1372    -0.8381 C.ar    
  10 C10           -1.2978     2.0552    -0.0922 C.ar    
  11 C11           -2.7052     1.6322    -0.2108 C.2     
  12 C12           -3.4925     4.0166    -0.2386 C.3     
  13 C13           -4.8736     4.5693     0.1935 C.3     
  14 C14           -5.8396     3.6330    -0.5795 C.3     
  15 C15           -5.1043     2.2763    -0.5531 C.3     
  16 C16           -5.2828     1.5584    -1.8924 C.3     
  17 C17           -6.7316     1.1847    -2.0727 C.ar    
  18 C18           -7.5502     1.9578    -2.8739 C.ar    
  19 C19           -8.8794     1.6150    -3.0394 C.ar    
  20 C20           -9.3902     0.4990    -2.4037 C.ar    
  21 C21           -8.5724    -0.2749    -1.6017 C.ar    
  22 C22           -7.2410     0.0641    -1.4406 C.ar    
  23 Br23           1.1353     4.9850    -1.7424 Br      
  24 H24           -0.2632    -0.2305     2.0431 H       
  25 H25           -1.8330     0.0869     1.5356 H       
  26 H26            1.5730     1.2598     1.5366 H       
  27 H27            2.3841     3.1593     0.2077 H       
  28 H28           -1.4885     3.6670    -1.5045 H       
  29 H29           -2.7361     4.2600     0.5075 H       
  30 H30           -3.2103     4.4191    -1.2115 H       
  31 H31           -5.0137     4.4724     1.2701 H       
  32 H32           -4.9964     5.6050    -0.1233 H       
  33 H33           -6.8002     3.5636    -0.0691 H       
  34 H34           -5.9708     3.9765    -1.6056 H       
  35 H35           -5.4967     1.6598     0.2556 H       
  36 H36           -4.9744     2.2191    -2.7027 H       
  37 H37           -4.6706     0.6567    -1.9057 H       
  38 H38           -7.1517     2.8301    -3.3706 H       
  39 H39           -9.5188     2.2197    -3.6654 H       
  40 H40          -10.4285     0.2317    -2.5334 H       
  41 H41           -8.9717    -1.1467    -1.1048 H       
@<TRIPOS>BOND
   1    1   22 1
   2    2    3 1
   3    2    5 ar
   4    2   10 ar
   5    3   24 1
   6    3   25 1
   7    4   11 2
   8    5    7 ar
   9    5   26 1
  10    6   11 am
  11    6   12 1
  12    6   15 1
  13    7    8 ar
  14    7   27 1
  15    8    9 ar
  16    8   23 1
  17    9   10 ar
  18    9   28 1
  19   10   11 1
  20   12   13 1
  21   12   29 1
  22   12   30 1
  23   13   14 1
  24   13   31 1
  25   13   32 1
  26   14   15 1
  27   14   33 1
  28   14   34 1
  29   15   16 1
  30   15   35 1
  31   16   17 1
  32   16   36 1
  33   16   37 1
  34   17   18 ar
  35   17   22 ar
  36   18   19 ar
  37   18   38 1
  38   19   20 ar
  39   19   39 1
  40   20   21 ar
  41   20   40 1
  42   21   22 ar
  43   21   41 1

#	End of record

