#	Name: ASD01901156
#	Creating user name:	WinNT
#	Creation time:	15. 06. 2019 19:53

#	Modifying user name:	WinNT
#	Modification time:	15. 06. 2019 19:53

#	Program:	/corina/corina34_cracker 3.40 0067  02.08.2006

@<TRIPOS>MOLECULE
ASD01901156
  51   53    0    0    0
SMALL
NO_CHARGES


@<TRIPOS>ATOM
   1 C1             0.4925     1.3893    -0.8311 C.ar    
   2 C2             0.5545     0.0145    -0.9221 C.ar    
   3 C3             1.7774    -0.6312    -0.8724 C.ar    
   4 C4             2.9463     0.0959    -0.7311 C.ar    
   5 C5             2.8999     1.4712    -0.6384 C.ar    
   6 C6             1.6687     2.1303    -0.6883 C.ar    
   7 C7             1.6125     3.5580    -0.5937 C.1     
   8 C8             1.5665     4.7286    -0.5160 C.1     
   9 C9             1.5103     6.1563    -0.4214 C.ar    
  10 C10            2.6879     6.8959    -0.2786 C.ar    
  11 C11            2.6300     8.2716    -0.1881 C.ar    
  12 C12            1.4015     8.9227    -0.2389 C.ar    
  13 C13            0.2275     8.1899    -0.3810 C.ar    
  14 C14            0.2782     6.8142    -0.4774 C.ar    
  15 N15            1.3465    10.3210    -0.1462 N.am    
  16 C16            1.4114    11.0614    -1.2653 C.2     
  17 N17            1.6012    12.3900    -1.2196 N.am    
  18 C18            1.8686    13.0687     0.0498 C.3     
  19 C19            1.0678    12.3967     1.1675 C.3     
  20 C20            1.2240    10.9008     1.0619 C.2     
  21 O21            1.2959    10.5155    -2.3451 O.2     
  22 F22            3.7675     8.9871    -0.0496 F       
  23 O23            1.2429    10.2210     2.0656 O.2     
  24 F24           -0.9633     8.8262    -0.4298 F       
  25 C25            3.3622    12.9819     0.3696 C.3     
  26 C26            1.4557    14.5378    -0.0607 C.3     
  27 C27            4.1688    13.5345    -0.8072 C.3     
  28 C28            1.6264    15.2192     1.2985 C.3     
  29 C29            1.5404    13.1712    -2.4574 C.3     
  30 H30           -0.4623     1.8922    -0.8746 H       
  31 H31           -0.3537    -0.5596    -1.0322 H       
  32 H32            1.8198    -1.7080    -0.9438 H       
  33 H33            3.8971    -0.4148    -0.6930 H       
  34 H34            3.8129     2.0374    -0.5274 H       
  35 H35            3.6418     6.3911    -0.2387 H       
  36 H36           -0.6332     6.2463    -0.5921 H       
  37 H37            1.4379    12.7357     2.1351 H       
  38 H38            0.0141    12.6573     1.0680 H       
  39 H39            3.5770    13.5670     1.2639 H       
  40 H40            3.6371    11.9412     0.5417 H       
  41 H41            2.0833    15.0371    -0.7989 H       
  42 H42            0.4122    14.5997    -0.3697 H       
  43 H43            5.2331    13.4045    -0.6113 H       
  44 H44            3.8986    12.9979    -1.7167 H       
  45 H45            3.9492    14.5948    -0.9322 H       
  46 H46            1.2516    16.2412     1.2422 H       
  47 H47            1.0666    14.6680     2.0541 H       
  48 H48            2.6826    15.2338     1.5674 H       
  49 H49            1.4308    12.4975    -3.3073 H       
  50 H50            0.6872    13.8484    -2.4182 H       
  51 H51            2.4581    13.7490    -2.5679 H       
@<TRIPOS>BOND
   1    1    2 ar
   2    1    6 ar
   3    1   30 1
   4    2    3 ar
   5    2   31 1
   6    3    4 ar
   7    3   32 1
   8    4    5 ar
   9    4   33 1
  10    5    6 ar
  11    5   34 1
  12    6    7 1
  13    7    8 3
  14    8    9 1
  15    9   10 ar
  16    9   14 ar
  17   10   11 ar
  18   10   35 1
  19   11   12 ar
  20   11   22 1
  21   12   13 ar
  22   12   15 1
  23   13   14 ar
  24   13   24 1
  25   14   36 1
  26   15   16 am
  27   15   20 am
  28   16   17 am
  29   16   21 2
  30   17   18 1
  31   17   29 1
  32   18   19 1
  33   18   26 1
  34   18   25 1
  35   19   20 1
  36   19   37 1
  37   19   38 1
  38   20   23 2
  39   25   27 1
  40   25   39 1
  41   25   40 1
  42   26   28 1
  43   26   41 1
  44   26   42 1
  45   27   43 1
  46   27   44 1
  47   27   45 1
  48   28   46 1
  49   28   47 1
  50   28   48 1
  51   29   49 1
  52   29   50 1
  53   29   51 1

#	End of record

