#	Name: ASD05430693
#	Creating user name:	WinNT
#	Creation time:	15. 06. 2019 21:00

#	Modifying user name:	WinNT
#	Modification time:	15. 06. 2019 21:00

#	Program:	/corina/corina34_cracker 3.40 0067  02.08.2006

@<TRIPOS>MOLECULE
ASD05430693
  29   29    0    0    0
SMALL
NO_CHARGES


@<TRIPOS>ATOM
   1 C1            -0.0167     1.3779     0.0096 C.ar    
   2 C2             0.0021    -0.0041     0.0020 C.ar    
   3 C3            -1.1857    -0.7116     0.0095 C.ar    
   4 C4            -2.4105     1.3455     0.0438 C.ar    
   5 C5            -1.2231     2.0528     0.0305 C.ar    
   6 C6             1.2780     2.1491     0.0014 C.3     
   7 C7            -2.3919    -0.0369     0.0251 C.ar    
   8 C8             2.4543     1.1708    -0.0151 C.3     
   9 C9             1.3352     3.0364    -1.2437 C.3     
  10 C10            1.3591     3.0230     1.2546 C.3     
  11 S11           -3.9900     2.2290     0.0712 Du      
  12 F12           -5.3949     3.0149     0.0955 F       
  13 F13           -4.5621     1.2415    -1.0645 F       
  14 F14           -3.4506     3.2286    -1.0698 F       
  15 F15           -4.5294     1.2293     1.2122 F       
  16 F16           -3.4179     3.2165     1.2068 F       
  17 H17            0.9446    -0.5313    -0.0101 H       
  18 H18           -1.1711    -1.7914     0.0029 H       
  19 H19           -1.2377     3.1326     0.0451 H       
  20 H20           -3.3197    -0.5896     0.0354 H       
  21 H21            2.3965     0.5482    -0.9079 H       
  22 H22            3.3907     1.7286    -0.0210 H       
  23 H23            2.4135     0.5386     0.8719 H       
  24 H24            0.4972     3.7334    -1.2320 H       
  25 H25            2.2717     3.5942    -1.2496 H       
  26 H26            1.2775     2.4138    -2.1365 H       
  27 H27            1.3183     2.3909     2.1417 H       
  28 H28            2.2955     3.5808     1.2487 H       
  29 H29            0.5211     3.7200     1.2664 H       
@<TRIPOS>BOND
   1    1    2 ar
   2    1    6 1
   3    1    5 ar
   4    2    3 ar
   5    2   17 1
   6    3    7 ar
   7    3   18 1
   8    4    5 ar
   9    4   11 1
  10    4    7 ar
  11    5   19 1
  12    6    8 1
  13    6    9 1
  14    6   10 1
  15    7   20 1
  16    8   21 1
  17    8   22 1
  18    8   23 1
  19    9   24 1
  20    9   25 1
  21    9   26 1
  22   10   27 1
  23   10   28 1
  24   10   29 1
  25   11   12 1
  26   11   13 1
  27   11   14 1
  28   11   15 1
  29   11   16 1

#	End of record

