#	Name: ASD01180060
#	Creating user name:	WinNT
#	Creation time:	15. 06. 2019 19:06

#	Modifying user name:	WinNT
#	Modification time:	15. 06. 2019 19:06

#	Program:	/corina/corina34_cracker 3.40 0067  02.08.2006

@<TRIPOS>MOLECULE
ASD01180060
  66   68    0    0    0
SMALL
NO_CHARGES


@<TRIPOS>ATOM
   1 C1             0.5948     1.4519    -0.8905 C.2     
   2 C2             0.5467    -0.0499    -0.7757 C.3     
   3 C3             1.9708    -0.6089    -0.7973 C.3     
   4 O4             1.6589     2.0172    -0.9803 O.2     
   5 O5            -0.5448     2.1612    -0.8984 O.3     
   6 C6             3.0680    -2.7815    -0.6834 C.2     
   7 C7             3.0208    -4.2550    -0.5708 C.ar    
   8 C8             4.2036    -4.9959    -0.5680 C.ar    
   9 C9             4.1527    -6.3705    -0.4622 C.ar    
  10 C10            2.9325    -7.0147    -0.3595 C.ar    
  11 C11            1.7563    -6.2861    -0.3616 C.ar    
  12 C12            1.7935    -4.9106    -0.4611 C.ar    
  13 O13            4.1385    -2.2129    -0.7738 O.2     
  14 N14            1.9240    -2.0689    -0.6858 N.am    
  15 C15            2.8844    -8.5166    -0.2452 C.3     
  16 C16            2.6814    -8.9104     1.2192 C.3     
  17 C17            3.9123    -8.5039     2.0320 C.3     
  18 C18            3.6561    -8.7752     3.5158 C.3     
  19 N19            1.7727    -9.0320    -1.0481 N.pl3   
  20 N20            2.8677   -11.0771    -1.2938 N.ar    
  21 C21            1.8417   -10.3064    -1.5907 C.ar    
  22 C22            0.8171   -10.7445    -2.4424 C.ar    
  23 C23            0.8712   -11.9938    -2.9823 C.ar    
  24 C24            1.9723   -12.8139    -2.6604 C.ar    
  25 C25            2.0912   -14.1109    -3.1823 C.ar    
  26 C26            3.1695   -14.8746    -2.8503 C.ar    
  27 C27            4.1561   -14.3848    -1.9984 C.ar    
  28 C28            4.0719   -13.1308    -1.4743 C.ar    
  29 C29            2.9748   -12.3135    -1.7942 C.ar    
  30 C30           -0.3418    -9.8348    -2.7592 C.3     
  31 C31            5.1220    -9.3166     1.5664 C.3     
  32 C32           -0.4226     3.6036    -1.0117 C.3     
  33 C33           -1.8160     4.2356    -1.0037 C.3     
  34 H34            0.0616    -0.3275     0.1601 H       
  35 H35           -0.0175    -0.4604    -1.6132 H       
  36 H36            2.4559    -0.3314    -1.7331 H       
  37 H37            2.5350    -0.1984     0.0401 H       
  38 H38            5.1567    -4.4943    -0.6489 H       
  39 H39            5.0672    -6.9450    -0.4599 H       
  40 H40            0.8071    -6.7950    -0.2811 H       
  41 H41            0.8749    -4.3427    -0.4582 H       
  42 H42            1.0698    -2.5227    -0.6137 H       
  43 H43            3.8213    -8.9388    -0.6085 H       
  44 H44            1.8015    -8.4020     1.6136 H       
  45 H45            2.5397    -9.9889     1.2892 H       
  46 H46            4.1098    -7.4420     1.8857 H       
  47 H47            3.4585    -9.8372     3.6621 H       
  48 H48            4.5330    -8.4857     4.0948 H       
  49 H49            2.7942    -8.1962     3.8475 H       
  50 H50            0.9884    -8.4820    -1.2002 H       
  51 H51            0.0907   -12.3474    -3.6398 H       
  52 H52            1.3319   -14.5018    -3.8434 H       
  53 H53            3.2600   -15.8727    -3.2526 H       
  54 H54            5.0012   -15.0094    -1.7493 H       
  55 H55            4.8454   -12.7660    -0.8148 H       
  56 H56           -0.1080    -9.2433    -3.6444 H       
  57 H57           -1.2329   -10.4337    -2.9473 H       
  58 H58           -0.5227    -9.1694    -1.9150 H       
  59 H59            4.8889   -10.3799     1.6227 H       
  60 H60            5.3634    -9.0516     0.5370 H       
  61 H61            5.9757    -9.0974     2.2078 H       
  62 H62            0.1548     3.9865    -0.1702 H       
  63 H63            0.0843     3.8533    -1.9438 H       
  64 H64           -2.3934     3.8527    -1.8452 H       
  65 H65           -2.3229     3.9860    -0.0716 H       
  66 H66           -1.7243     5.3185    -1.0887 H       
@<TRIPOS>BOND
   1    1    2 1
   2    1    4 2
   3    1    5 1
   4    2    3 1
   5    2   34 1
   6    2   35 1
   7    3   14 1
   8    3   36 1
   9    3   37 1
  10    5   32 1
  11    6    7 1
  12    6   13 2
  13    6   14 am
  14    7    8 ar
  15    7   12 ar
  16    8    9 ar
  17    8   38 1
  18    9   10 ar
  19    9   39 1
  20   10   11 ar
  21   10   15 1
  22   11   12 ar
  23   11   40 1
  24   12   41 1
  25   14   42 1
  26   15   16 1
  27   15   19 1
  28   15   43 1
  29   16   17 1
  30   16   44 1
  31   16   45 1
  32   17   18 1
  33   17   31 1
  34   17   46 1
  35   18   47 1
  36   18   48 1
  37   18   49 1
  38   19   21 1
  39   19   50 1
  40   20   21 ar
  41   20   29 ar
  42   21   22 ar
  43   22   23 ar
  44   22   30 1
  45   23   24 ar
  46   23   51 1
  47   24   25 ar
  48   24   29 ar
  49   25   26 ar
  50   25   52 1
  51   26   27 ar
  52   26   53 1
  53   27   28 ar
  54   27   54 1
  55   28   29 ar
  56   28   55 1
  57   30   56 1
  58   30   57 1
  59   30   58 1
  60   31   59 1
  61   31   60 1
  62   31   61 1
  63   32   33 1
  64   32   62 1
  65   32   63 1
  66   33   64 1
  67   33   65 1
  68   33   66 1

#	End of record

