#	Name: ASD01870372
#	Creating user name:	WinNT
#	Creation time:	15. 06. 2019 19:39

#	Modifying user name:	WinNT
#	Modification time:	15. 06. 2019 19:39

#	Program:	/corina/corina34_cracker 3.40 0067  02.08.2006

@<TRIPOS>MOLECULE
ASD01870372
  49   53    0    0    0
SMALL
NO_CHARGES


@<TRIPOS>ATOM
   1 N1            -0.0179     1.4681     0.0101 N.am    
   2 C2             0.0021    -0.0041     0.0020 C.3     
   3 C3             1.1239     2.1843     0.0031 C.2     
   4 C4             1.0688     3.6902     0.0117 C.3     
   5 O5             2.1956     1.6167    -0.0102 O.2     
   6 C6             2.4544     4.3611     0.0020 C.3     
   7 N7             1.8785     5.3070    -0.9736 N.am    
   8 C8             0.8692     4.3111    -1.3828 C.3     
   9 S9             2.2256     6.8614    -1.4270 S.o2    
  10 C10            3.3850     6.7720    -2.7509 C.ar    
  11 O11            1.0292     7.3957    -1.9768 O.2     
  12 O12            2.9110     7.4550    -0.3329 O.2     
  13 C13            3.0504     7.2058    -3.9976 C.ar    
  14 C14           -0.6094    -0.4884     1.3162 C.3     
  15 C15           -1.8939     0.2386     1.6086 C.ar    
  16 C16           -2.2272     1.4409     1.0281 C.ar    
  17 C17           -1.3295     2.1246     0.0200 C.3     
  18 N18            3.9037     7.1492    -5.0111 N.ar    
  19 C19            5.1217     6.6762    -4.8889 C.ar    
  20 C20            5.5670     6.2032    -3.6439 C.ar    
  21 C21            4.6768     6.2563    -2.5398 C.ar    
  22 C22            6.8600     5.6883    -3.4610 C.ar    
  23 C23            7.2373     5.2440    -2.2304 C.ar    
  24 C24            6.3604     5.2914    -1.1482 C.ar    
  25 C25            5.1003     5.7898    -1.2870 C.ar    
  26 C26           -2.7789    -0.3432     2.5128 C.ar    
  27 C27           -3.9636     0.3100     2.8037 C.ar    
  28 C28           -4.2286     1.5190     2.1879 C.ar    
  29 N29           -3.3705     2.0381     1.3367 N.ar    
  30 H30           -0.5852    -0.3764    -0.8374 H       
  31 H31            1.0296    -0.3586    -0.0796 H       
  32 H32            0.3946     4.0865     0.7710 H       
  33 H33            2.7264     4.8212     0.9520 H       
  34 H34            3.2441     3.7324    -0.4091 H       
  35 H35            1.1932     3.6677    -2.2007 H       
  36 H36           -0.1245     4.7312    -1.5385 H       
  37 H37            2.0619     7.6069    -4.1657 H       
  38 H38           -0.8104    -1.5573     1.2457 H       
  39 H39            0.0964    -0.3097     2.1274 H       
  40 H40           -1.2054     3.1718     0.2961 H       
  41 H41           -1.7818     2.0622    -0.9697 H       
  42 H42            5.7804     6.6504    -5.7444 H       
  43 H43            7.5504     5.6446    -4.2904 H       
  44 H44            8.2324     4.8481    -2.0908 H       
  45 H45            6.6865     4.9316    -0.1835 H       
  46 H46            4.4308     5.8207    -0.4401 H       
  47 H47           -2.5446    -1.2887     2.9791 H       
  48 H48           -4.6698    -0.1178     3.4999 H       
  49 H49           -5.1479     2.0416     2.4073 H       
@<TRIPOS>BOND
   1    1    2 1
   2    1    3 am
   3    1   17 1
   4    2   14 1
   5    2   30 1
   6    2   31 1
   7    3    4 1
   8    3    5 2
   9    4    6 1
  10    4    8 1
  11    4   32 1
  12    6    7 1
  13    6   33 1
  14    6   34 1
  15    7    8 1
  16    7    9 am
  17    8   35 1
  18    8   36 1
  19    9   10 1
  20    9   11 2
  21    9   12 2
  22   10   13 ar
  23   10   21 ar
  24   13   18 ar
  25   13   37 1
  26   14   15 1
  27   14   38 1
  28   14   39 1
  29   15   16 ar
  30   15   26 ar
  31   16   17 1
  32   16   29 ar
  33   17   40 1
  34   17   41 1
  35   18   19 ar
  36   19   20 ar
  37   19   42 1
  38   20   21 ar
  39   20   22 ar
  40   21   25 ar
  41   22   23 ar
  42   22   43 1
  43   23   24 ar
  44   23   44 1
  45   24   25 ar
  46   24   45 1
  47   25   46 1
  48   26   27 ar
  49   26   47 1
  50   27   28 ar
  51   27   48 1
  52   28   29 ar
  53   28   49 1

#	End of record

