#	Name: ASD03430302
#	Creating user name:	WinNT
#	Creation time:	15. 06. 2019 20:40

#	Modifying user name:	WinNT
#	Modification time:	15. 06. 2019 20:40

#	Program:	/corina/corina34_cracker 3.40 0067  02.08.2006

@<TRIPOS>MOLECULE
ASD03430302
  59   64    0    0    0
SMALL
NO_CHARGES


@<TRIPOS>ATOM
   1 C1            -0.0166     1.3737     0.0096 C.ar    
   2 C2             0.0021    -0.0041     0.0020 C.ar    
   3 C3             1.2040    -0.6791    -0.0055 C.ar    
   4 C4             2.4066     0.0237     0.0042 C.ar    
   5 C5             2.3789     1.4127     0.0033 C.ar    
   6 C6             1.1692     2.0977     0.0022 C.ar    
   7 O7             3.4725    -0.8263     0.0251 O.3     
   8 C8             1.5599    -2.1407    -0.0378 C.3     
   9 C9             3.0486    -2.1319    -0.4120 C.3     
  10 C10            0.4333    -3.8606     1.0082 C.ar    
  11 C11            1.3177    -2.8186     1.2778 C.ar    
  12 C12            0.7380    -2.9043    -1.0363 C.2     
  13 N13            0.1139    -3.8833    -0.3516 N.am    
  14 O14            0.6525    -2.6833    -2.2258 O.2     
  15 C15            1.7762    -2.6030     2.5578 C.ar    
  16 C16            1.3585    -3.4233     3.5913 C.ar    
  17 C17            0.4797    -4.4594     3.3353 C.ar    
  18 C18            0.0179    -4.6804     2.0541 C.ar    
  19 C19           -0.7933    -4.8580    -0.9624 C.3     
  20 C20           -1.1522     2.3780     0.0354 C.3     
  21 C21           -0.4182     3.6805     0.4331 C.3     
  22 O22            0.9259     3.4378    -0.0160 O.3     
  23 C23            2.7343    -1.4730     2.8338 C.3     
  24 C24           -2.2233    -4.3151    -0.9280 C.3     
  25 C25           -3.1861    -5.3336    -1.5686 C.3     
  26 C26           -4.2052    -5.6498    -0.4470 C.3     
  27 C27           -4.0563    -4.4191     0.4834 C.3     
  28 O28           -2.6428    -4.1288     0.4341 O.3     
  29 N29            1.9887    -0.2107     2.9272 N.3     
  30 C30            1.1004    -0.2093     4.0972 C.3     
  31 C31            2.9023     0.9392     2.9586 C.3     
  32 H32           -0.9263    -0.5559     0.0023 H       
  33 H33            3.3065     1.9659     0.0035 H       
  34 H34            3.1777    -2.2404    -1.4888 H       
  35 H35            3.5870    -2.9133     0.1242 H       
  36 H36            1.7186    -3.2546     4.5954 H       
  37 H37            0.1533    -5.0990     4.1420 H       
  38 H38           -0.6683    -5.4919     1.8619 H       
  39 H39           -0.4959    -5.0331    -1.9963 H       
  40 H40           -0.7470    -5.7950    -0.4074 H       
  41 H41           -1.6098     2.4739    -0.9493 H       
  42 H42           -1.8960     2.1058     0.7842 H       
  43 H43           -0.8486     4.5391    -0.0824 H       
  44 H44           -0.4445     3.8241     1.5133 H       
  45 H45            3.2538    -1.6586     3.7739 H       
  46 H46            3.4609    -1.4068     2.0241 H       
  47 H47           -2.2733    -3.3686    -1.4663 H       
  48 H48           -3.6901    -4.8934    -2.4290 H       
  49 H49           -2.6482    -6.2356    -1.8607 H       
  50 H50           -5.2169    -5.7144    -0.8476 H       
  51 H51           -3.9360    -6.5675     0.0758 H       
  52 H52           -4.6345    -3.5775     0.1022 H       
  53 H53           -4.3620    -4.6671     1.4998 H       
  54 H54            1.6930    -0.3331     5.0036 H       
  55 H55            0.5605     0.7365     4.1424 H       
  56 H56            0.3883    -1.0304     4.0137 H       
  57 H57            3.5003     0.9531     2.0474 H       
  58 H58            2.3243     1.8607     3.0280 H       
  59 H59            3.5603     0.8570     3.8238 H       
@<TRIPOS>BOND
   1    1    2 ar
   2    1    6 ar
   3    1   20 1
   4    2    3 ar
   5    2   32 1
   6    3    4 ar
   7    3    8 1
   8    4    5 ar
   9    4    7 1
  10    5    6 ar
  11    5   33 1
  12    6   22 1
  13    7    9 1
  14    8    9 1
  15    8   11 1
  16    8   12 1
  17    9   34 1
  18    9   35 1
  19   10   11 ar
  20   10   13 1
  21   10   18 ar
  22   11   15 ar
  23   12   13 am
  24   12   14 2
  25   13   19 1
  26   15   16 ar
  27   15   23 1
  28   16   17 ar
  29   16   36 1
  30   17   18 ar
  31   17   37 1
  32   18   38 1
  33   19   24 1
  34   19   39 1
  35   19   40 1
  36   20   21 1
  37   20   41 1
  38   20   42 1
  39   21   22 1
  40   21   43 1
  41   21   44 1
  42   23   29 1
  43   23   45 1
  44   23   46 1
  45   24   25 1
  46   24   28 1
  47   24   47 1
  48   25   26 1
  49   25   48 1
  50   25   49 1
  51   26   27 1
  52   26   50 1
  53   26   51 1
  54   27   28 1
  55   27   52 1
  56   27   53 1
  57   29   30 1
  58   29   31 1
  59   30   54 1
  60   30   55 1
  61   30   56 1
  62   31   57 1
  63   31   58 1
  64   31   59 1

#	End of record

