#	Name: ASD01940355
#	Creating user name:	WinNT
#	Creation time:	15. 06. 2019 20:12

#	Modifying user name:	WinNT
#	Modification time:	15. 06. 2019 20:12

#	Program:	/corina/corina34_cracker 3.40 0067  02.08.2006

@<TRIPOS>MOLECULE
ASD01940355
  46   49    0    0    0
SMALL
NO_CHARGES


@<TRIPOS>ATOM
   1 C1            -0.9568     2.6713    -2.0599 C.3     
   2 C2            -1.3433     1.3613    -2.7494 C.3     
   3 C3             0.0593     1.5320    -2.1625 C.3     
   4 S4            -0.6936     4.1256    -3.1117 S.o2    
   5 O5             0.4042     3.9145    -3.9889 O.2     
   6 O6            -1.9340     4.6213    -3.5966 O.2     
   7 N7            -0.1642     5.2988    -2.0698 N.am    
   8 C8             1.0216     5.1109    -1.3472 C.ar    
   9 C9             1.1297     5.5952    -0.0441 C.ar    
  10 C10            2.3066     5.4057     0.6672 C.ar    
  11 C11            3.3695     4.7366     0.0807 C.ar    
  12 C12            3.2598     4.2573    -1.2130 C.ar    
  13 C13            2.0875     4.4381    -1.9246 C.ar    
  14 N14            0.0533     6.2717     0.5457 N.pl3   
  15 C15            0.6847     8.6793     3.8900 C.ar    
  16 C16            1.1121     9.1064     2.6331 C.ar    
  17 C17            0.9021     8.3089     1.5268 C.ar    
  18 C18            0.2649     7.0785     1.6661 C.ar    
  19 C19           -0.1609     6.6527     2.9182 C.ar    
  20 C20            0.0469     7.4476     4.0260 C.ar    
  21 C21            0.9146     9.5320     5.0818 C.ar    
  22 C22            0.4883     9.1069     6.3387 C.ar    
  23 C23            0.7048     9.9044     7.4441 C.ar    
  24 C24            1.3436    11.1236     7.3061 C.ar    
  25 C25            1.7689    11.5505     6.0610 C.ar    
  26 C26            1.5628    10.7587     4.9496 C.ar    
  27 F27            1.3152     8.7216     0.3085 F       
  28 F28            4.5149     4.5524     0.7731 F       
  29 F29            2.4162     5.8735     1.9299 F       
  30 H30           -1.3910     2.8717    -1.0804 H       
  31 H31           -2.0318     0.6999    -2.2236 H       
  32 H32           -1.4395     1.3734    -3.8351 H       
  33 H33            0.8859     1.6564    -2.8621 H       
  34 H34            0.2935     0.9829    -1.2505 H       
  35 H35           -0.6749     6.1161    -1.9597 H       
  36 H36            4.0903     3.7368    -1.6667 H       
  37 H37            2.0041     4.0588    -2.9323 H       
  38 H38           -0.8387     6.1796     0.1759 H       
  39 H39            1.6062    10.0607     2.5256 H       
  40 H40           -0.6556     5.6985     3.0241 H       
  41 H41           -0.2842     7.1155     4.9989 H       
  42 H42           -0.0109     8.1554     6.4475 H       
  43 H43            0.3745     9.5762     8.4185 H       
  44 H44            1.5106    11.7446     8.1738 H       
  45 H45            2.2671    12.5033     5.9591 H       
  46 H46            1.8995    11.0908     3.9787 H       
@<TRIPOS>BOND
   1    1    2 1
   2    1    3 1
   3    1    4 1
   4    1   30 1
   5    2    3 1
   6    2   31 1
   7    2   32 1
   8    3   33 1
   9    3   34 1
  10    4    5 2
  11    4    6 2
  12    4    7 am
  13    7    8 1
  14    7   35 1
  15    8    9 ar
  16    8   13 ar
  17    9   10 ar
  18    9   14 1
  19   10   11 ar
  20   10   29 1
  21   11   12 ar
  22   11   28 1
  23   12   13 ar
  24   12   36 1
  25   13   37 1
  26   14   18 1
  27   14   38 1
  28   15   16 ar
  29   15   20 ar
  30   15   21 1
  31   16   17 ar
  32   16   39 1
  33   17   18 ar
  34   17   27 1
  35   18   19 ar
  36   19   20 ar
  37   19   40 1
  38   20   41 1
  39   21   22 ar
  40   21   26 ar
  41   22   23 ar
  42   22   42 1
  43   23   24 ar
  44   23   43 1
  45   24   25 ar
  46   24   44 1
  47   25   26 ar
  48   25   45 1
  49   26   46 1

#	End of record

