#	Name: ASD01810441
#	Creating user name:	WinNT
#	Creation time:	15. 06. 2019 19:24

#	Modifying user name:	WinNT
#	Modification time:	15. 06. 2019 19:24

#	Program:	/corina/corina34_cracker 3.40 0067  02.08.2006

@<TRIPOS>MOLECULE
ASD01810441
  47   48    0    0    0
SMALL
NO_CHARGES


@<TRIPOS>ATOM
   1 N1            -0.0175     1.4416     0.0100 N.am    
   2 C2             0.0021    -0.0041     0.0020 C.3     
   3 C3            -0.0233    -0.5159    -1.4594 C.3     
   4 C4             1.2652    -0.2488    -2.1166 C.3     
   5 C5             1.6124     1.2316    -2.2410 C.3     
   6 C6             2.2717     1.6995    -0.9671 C.3     
   7 C7             1.2134     2.2561     0.0026 C.3     
   8 C8            -1.2090     2.0715     0.0189 C.2     
   9 O9            -2.2380     1.4252     0.0202 O.2     
  10 O10           -1.2591     3.4169     0.0265 O.3     
  11 O11            2.2980    -0.8959    -1.3704 O.3     
  12 C12            1.2314    -0.8501    -3.4981 C.ar    
  13 C13            1.6522    -2.1538    -3.6922 C.ar    
  14 C14            1.6239    -2.7105    -4.9540 C.ar    
  15 C15            1.1688    -1.9552    -6.0367 C.ar    
  16 C16            0.7452    -0.6403    -5.8335 C.ar    
  17 C17            0.7743    -0.0978    -4.5655 C.ar    
  18 C18            1.1371    -2.5264    -7.3495 C.1     
  19 N19            1.1120    -2.9795    -8.3909 N.1     
  20 C20           -2.5765     4.0274     0.0359 C.3     
  21 C21           -3.3367     3.5807     1.2863 C.3     
  22 C22           -2.4326     5.5506     0.0435 C.3     
  23 C23           -3.3483     3.5943    -1.2121 C.3     
  24 H24            0.9079    -0.3575     0.4947 H       
  25 H25           -0.8710    -0.3818     0.5341 H       
  26 H26           -0.2143    -1.5891    -1.4625 H       
  27 H27           -0.8188    -0.0089    -2.0055 H       
  28 H28            2.2953     1.3759    -3.0782 H       
  29 H29            0.7015     1.8057    -2.4112 H       
  30 H30            2.7868     0.8614    -0.4977 H       
  31 H31            2.9948     2.4810    -1.2003 H       
  32 H32            0.9622     3.2744    -0.2941 H       
  33 H33            1.6311     2.2754     1.0092 H       
  34 H34            2.1943    -1.8551    -1.3055 H       
  35 H35            2.0040    -2.7368    -2.8539 H       
  36 H36            1.9534    -3.7280    -5.1043 H       
  37 H37            0.3920    -0.0506    -6.6666 H       
  38 H38            0.4431     0.9178    -4.4063 H       
  39 H39           -2.7868     3.8893     2.1754 H       
  40 H40           -4.3256     4.0390     1.2934 H       
  41 H41           -3.4392     2.4955     1.2809 H       
  42 H42           -1.8911     5.8689    -0.8472 H       
  43 H43           -3.4216     6.0089     0.0506 H       
  44 H44           -1.8828     5.8592     0.9327 H       
  45 H45           -3.4508     2.5091    -1.2175 H       
  46 H46           -4.3372     4.0526    -1.2050 H       
  47 H47           -2.8067     3.9125    -2.1029 H       
@<TRIPOS>BOND
   1    1    2 1
   2    1    7 1
   3    1    8 am
   4    2    3 1
   5    2   24 1
   6    2   25 1
   7    3    4 1
   8    3   26 1
   9    3   27 1
  10    4    5 1
  11    4   11 1
  12    4   12 1
  13    5    6 1
  14    5   28 1
  15    5   29 1
  16    6    7 1
  17    6   30 1
  18    6   31 1
  19    7   32 1
  20    7   33 1
  21    8    9 2
  22    8   10 1
  23   10   20 1
  24   11   34 1
  25   12   13 ar
  26   12   17 ar
  27   13   14 ar
  28   13   35 1
  29   14   15 ar
  30   14   36 1
  31   15   16 ar
  32   15   18 1
  33   16   17 ar
  34   16   37 1
  35   17   38 1
  36   18   19 3
  37   20   21 1
  38   20   23 1
  39   20   22 1
  40   21   39 1
  41   21   40 1
  42   21   41 1
  43   22   42 1
  44   22   43 1
  45   22   44 1
  46   23   45 1
  47   23   46 1
  48   23   47 1

#	End of record

