#	Name: ASD00960078
#	Creating user name:	WinNT
#	Creation time:	15. 06. 2019 18:53

#	Modifying user name:	WinNT
#	Modification time:	15. 06. 2019 18:53

#	Program:	/corina/corina34_cracker 3.40 0067  02.08.2006

@<TRIPOS>MOLECULE
ASD00960078
  39   41    0    0    0
SMALL
NO_CHARGES


@<TRIPOS>ATOM
   1 F1             0.0021    -0.0041     0.0020 F       
   2 C2            -0.0169     1.3948     0.0097 C.3     
   3 C3            -0.8154     1.9319    -1.1987 C.3     
   4 O4            -1.5172     3.0883    -0.6926 O.3     
   5 C5            -1.9722     2.7107     0.6250 C.3     
   6 C6            -2.2694     3.9559     1.4630 C.3     
   7 C7             0.1205     2.3312    -2.3103 C.2     
   8 C8             0.6271     1.4931    -3.2532 C.2     
   9 N9             0.5835     3.5754    -2.5313 N.pl3   
  10 C10            1.4107     3.5436    -3.6346 C.2     
  11 C11            1.4470     2.2443    -4.0970 C.2     
  12 N12            0.3762     4.7955    -1.8752 N.2     
  13 C13            0.9469     5.8883    -2.2872 C.2     
  14 N14            1.7807     5.9183    -3.3799 N.am    
  15 C15            2.0397     4.7888    -4.0747 C.2     
  16 O16           -3.3868     4.6501     0.9048 O.3     
  17 O17            2.7776     4.8070    -5.0433 O.2     
  18 C18            2.2224     1.7343    -5.2844 C.3     
  19 C19           -0.7923     1.9190     1.2391 C.3     
  20 C20            1.4092     1.9490    -0.0009 C.3     
  21 N21            0.7064     7.0626    -1.6023 N.pl3   
  22 O22           -1.2765     0.8296     2.0270 O.3     
  23 *23           -1.4680     1.1464     3.3875 Du      
  24 H24           -1.5239     1.1814    -1.5492 H       
  25 H25           -2.8581     2.0797     0.5542 H       
  26 H26           -2.5003     3.6588     2.4860 H       
  27 H27           -1.3979     4.6105     1.4627 H       
  28 H28            0.4307     0.4343    -3.3346 H       
  29 H29            2.1862     6.7559    -3.6535 H       
  30 H30           -3.6321     5.4520     1.3864 H       
  31 H31            3.2140     1.4171    -4.9617 H       
  32 H32            1.6960     0.8881    -5.7258 H       
  33 H33            2.3180     2.5289    -6.0244 H       
  34 H34           -0.1629     2.5758     1.8396 H       
  35 H35            1.9214     1.6166    -0.9039 H       
  36 H36            1.3758     3.0383     0.0178 H       
  37 H37            1.9463     1.5868     0.8757 H       
  38 H38            0.1208     7.0618    -0.8290 H       
  39 H39            1.1230     7.8884    -1.8943 H       
@<TRIPOS>BOND
   1    1    2 1
   2    2   20 1
   3    2    3 1
   4    2   19 1
   5    3    4 1
   6    3    7 1
   7    3   24 1
   8    4    5 1
   9    5   19 1
  10    5    6 1
  11    5   25 1
  12    6   16 1
  13    6   26 1
  14    6   27 1
  15    7    8 2
  16    7    9 1
  17    8   11 1
  18    8   28 1
  19    9   10 1
  20    9   12 1
  21   10   11 2
  22   10   15 1
  23   11   18 1
  24   12   13 2
  25   13   14 1
  26   13   21 1
  27   14   15 am
  28   14   29 1
  29   15   17 2
  30   16   30 1
  31   18   31 1
  32   18   32 1
  33   18   33 1
  34   19   22 1
  35   19   34 1
  36   20   35 1
  37   20   36 1
  38   20   37 1
  39   21   38 1
  40   21   39 1
  41   22   23 1

#	End of record

