#	Name: ASD01910231
#	Creating user name:	WinNT
#	Creation time:	15. 06. 2019 19:55

#	Modifying user name:	WinNT
#	Modification time:	15. 06. 2019 19:55

#	Program:	/corina/corina34_cracker 3.40 0067  02.08.2006

@<TRIPOS>MOLECULE
ASD01910231
  47   50    0    0    0
SMALL
NO_CHARGES


@<TRIPOS>ATOM
   1 C1             0.6219     0.5072     0.4125 C.2     
   2 C2             1.7995     1.4474     0.3981 C.3     
   3 C3             2.1156     1.8481    -1.0447 C.3     
   4 C4             3.3317     2.7769    -1.0632 C.3     
   5 C5             3.0117     4.0465    -0.2679 C.3     
   6 N6             2.5668     3.6616     1.0784 N.am    
   7 C7             1.4621     2.7019     1.2100 C.3     
   8 C8             3.1608     4.1790     2.1720 C.2     
   9 C9             4.3250     5.0784     2.0252 C.ar    
  10 O10            2.7393     3.9063     3.2790 O.2     
  11 N11            0.6113    -0.7194     0.8718 N.2     
  12 C12           -0.6493    -1.1689     0.6782 C.2     
  13 N13           -1.3235    -0.1982     0.1182 N.2     
  14 O14           -0.6096     0.7702    -0.0357 O.3     
  15 C15           -1.1699    -2.5121     1.0338 C.ar    
  16 C16           -2.4997    -2.8375     0.7736 C.ar    
  17 C17           -2.9794    -4.0877     1.1054 C.ar    
  18 C18           -2.1411    -5.0193     1.6965 C.ar    
  19 C19           -0.8182    -4.6998     1.9570 C.ar    
  20 C20           -0.3288    -3.4538     1.6236 C.ar    
  21 F21           -2.6151    -6.2423     2.0203 F       
  22 C22            4.2644     6.1669     1.1537 C.ar    
  23 C23            5.3543     7.0022     1.0213 C.ar    
  24 C24            6.5058     6.7628     1.7500 C.ar    
  25 C25            6.5727     5.6852     2.6153 C.ar    
  26 C26            5.4876     4.8458     2.7617 C.ar    
  27 C27            7.6925     7.6794     1.6003 C.3     
  28 F28            7.5987     8.7197     2.5311 F       
  29 F29            8.8701     6.9581     1.8243 F       
  30 F30            7.7105     8.2115     0.3066 F       
  31 H31            2.6659     0.9521     0.8363 H       
  32 H32            2.3320     0.9547    -1.6305 H       
  33 H33            1.2574     2.3648    -1.4744 H       
  34 H34            4.1839     2.2696    -0.6111 H       
  35 H35            3.5705     3.0432    -2.0929 H       
  36 H36            3.9052     4.6665    -0.1942 H       
  37 H37            2.2193     4.6020    -0.7697 H       
  38 H38            0.5434     3.1478     0.8287 H       
  39 H39            1.3331     2.4347     2.2588 H       
  40 H40           -3.1538    -2.1119     0.3132 H       
  41 H41           -4.0100    -4.3406     0.9044 H       
  42 H42           -0.1681    -5.4288     2.4179 H       
  43 H43            0.7024    -3.2057     1.8270 H       
  44 H44            3.3662     6.3547     0.5840 H       
  45 H45            5.3088     7.8446     0.3470 H       
  46 H46            7.4745     5.5036     3.1810 H       
  47 H47            5.5410     4.0053     3.4377 H       
@<TRIPOS>BOND
   1    1   11 2
   2    1    2 1
   3    1   14 1
   4    2    3 1
   5    2    7 1
   6    2   31 1
   7    3    4 1
   8    3   32 1
   9    3   33 1
  10    4    5 1
  11    4   34 1
  12    4   35 1
  13    5    6 1
  14    5   36 1
  15    5   37 1
  16    6    7 1
  17    6    8 am
  18    7   38 1
  19    7   39 1
  20    8    9 1
  21    8   10 2
  22    9   22 ar
  23    9   26 ar
  24   11   12 1
  25   12   13 2
  26   12   15 1
  27   13   14 1
  28   15   16 ar
  29   15   20 ar
  30   16   17 ar
  31   16   40 1
  32   17   18 ar
  33   17   41 1
  34   18   19 ar
  35   18   21 1
  36   19   20 ar
  37   19   42 1
  38   20   43 1
  39   22   23 ar
  40   22   44 1
  41   23   24 ar
  42   23   45 1
  43   24   25 ar
  44   24   27 1
  45   25   26 ar
  46   25   46 1
  47   26   47 1
  48   27   28 1
  49   27   29 1
  50   27   30 1

#	End of record

