#	Name: ASD03091459
#	Creating user name:	WinNT
#	Creation time:	15. 06. 2019 20:30

#	Modifying user name:	WinNT
#	Modification time:	15. 06. 2019 20:30

#	Program:	/corina/corina34_cracker 3.40 0067  02.08.2006

@<TRIPOS>MOLECULE
ASD03091459
  48   49    0    0    0
SMALL
NO_CHARGES


@<TRIPOS>ATOM
   1 C1            -0.0167     1.3830     0.0096 C.ar    
   2 C2             0.0021    -0.0041     0.0020 C.ar    
   3 C3             1.2073    -0.6783    -0.0132 C.ar    
   4 C4             2.3991     0.0316    -0.0208 C.ar    
   5 C5             2.3803     1.4182    -0.0131 C.ar    
   6 C6             1.1747     2.0926     0.0021 C.ar    
   7 C7             1.1542     3.5995     0.0099 C.3     
   8 O8             2.3740     4.0895     0.5704 O.3     
   9 C9             1.0081     4.1150    -1.4232 C.3     
  10 C10            0.8622     5.6379    -1.4050 C.3     
  11 C11            0.7183     6.1457    -2.8165 C.ar    
  12 C12           -0.5313     6.1715    -3.4201 C.ar    
  13 C13            1.8294     6.5904    -3.5067 C.ar    
  14 C14            1.7007     7.0566    -4.8012 C.ar    
  15 C15            0.4545     7.0796    -5.4109 C.ar    
  16 C16           -0.6630     6.6387    -4.7185 C.ar    
  17 O17            0.3284     7.5390    -6.6836 O.3     
  18 O18           -1.2035     2.0468     0.0189 O.3     
  19 O19            3.5858    -0.6322    -0.0353 O.3     
  20 O20           -1.6246     5.7387    -2.7389 O.3     
  21 C21           -2.3913     1.2523     0.0202 C.3     
  22 C22            3.5304    -2.0601    -0.0419 C.3     
  23 C23           -2.8785     5.7938    -3.4222 C.3     
  24 C24            1.5208     7.9827    -7.3343 C.3     
  25 H25           -0.9258    -0.5567     0.0083 H       
  26 H26            1.2220    -1.7581    -0.0187 H       
  27 H27            3.3082     1.9709    -0.0184 H       
  28 H28            0.3131     3.9483     0.6090 H       
  29 H29            3.1661     3.8174     0.0871 H       
  30 H30            1.8920     3.8416    -1.9995 H       
  31 H31            0.1242     3.6707    -1.8808 H       
  32 H32           -0.0217     5.9113    -0.8286 H       
  33 H33            1.7461     6.0822    -0.9473 H       
  34 H34            2.8001     6.5740    -3.0336 H       
  35 H35            2.5708     7.4037    -5.3387 H       
  36 H36           -1.6345     6.6598    -5.1898 H       
  37 H37           -2.4034     0.6184     0.9068 H       
  38 H38           -3.2646     1.9045     0.0279 H       
  39 H39           -2.4118     0.6281    -0.8731 H       
  40 H40            2.9945    -2.3988    -0.9286 H       
  41 H41            4.5431    -2.4630    -0.0535 H       
  42 H42            3.0112    -2.4078     0.8512 H       
  43 H43           -3.6658     5.4203    -2.7674 H       
  44 H44           -3.0958     6.8251    -3.7001 H       
  45 H45           -2.8302     5.1780    -4.3203 H       
  46 H46            1.9592     8.8047    -6.7683 H       
  47 H47            2.2327     7.1591    -7.3893 H       
  48 H48            1.2801     8.3228    -8.3415 H       
@<TRIPOS>BOND
   1    1    2 ar
   2    1    6 ar
   3    1   18 1
   4    2    3 ar
   5    2   25 1
   6    3    4 ar
   7    3   26 1
   8    4    5 ar
   9    4   19 1
  10    5    6 ar
  11    5   27 1
  12    6    7 1
  13    7    8 1
  14    7    9 1
  15    7   28 1
  16    8   29 1
  17    9   10 1
  18    9   30 1
  19    9   31 1
  20   10   11 1
  21   10   32 1
  22   10   33 1
  23   11   13 ar
  24   11   12 ar
  25   12   16 ar
  26   12   20 1
  27   13   14 ar
  28   13   34 1
  29   14   15 ar
  30   14   35 1
  31   15   16 ar
  32   15   17 1
  33   16   36 1
  34   17   24 1
  35   18   21 1
  36   19   22 1
  37   20   23 1
  38   21   37 1
  39   21   38 1
  40   21   39 1
  41   22   40 1
  42   22   41 1
  43   22   42 1
  44   23   43 1
  45   23   44 1
  46   23   45 1
  47   24   46 1
  48   24   47 1
  49   24   48 1

#	End of record

