#	Name: ASD01150367
#	Creating user name:	WinNT
#	Creation time:	15. 06. 2019 19:04

#	Modifying user name:	WinNT
#	Modification time:	15. 06. 2019 19:04

#	Program:	/corina/corina34_cracker 3.40 0067  02.08.2006

@<TRIPOS>MOLECULE
ASD01150367
  52   54    0    0    0
SMALL
NO_CHARGES


@<TRIPOS>ATOM
   1 C1             0.3805     1.5258     0.7458 C.ar    
   2 C2             0.4560     0.1761     1.0298 C.ar    
   3 C3             1.2861    -0.6435     0.2891 C.ar    
   4 C4             2.0476    -0.1122    -0.7441 C.ar    
   5 C5             1.9737     1.2431    -1.0324 C.ar    
   6 C6             1.1393     2.0635    -0.2868 C.ar    
   7 N7             1.0619     3.4311    -0.5744 N.am    
   8 C8            -0.1428     4.0149    -0.7033 C.2     
   9 N9            -0.2508     5.3282    -0.9791 N.am    
  10 C10            0.8591     6.0798    -1.1312 C.2     
  11 C11            2.1741     5.4484    -0.9917 C.2     
  12 N12            2.2394     4.1744    -0.7184 N.2     
  13 O13            0.7694     7.2676    -1.3815 O.2     
  14 C14           -1.5745     5.9413    -1.1148 C.3     
  15 O15           -1.1495     3.3465    -0.5690 O.2     
  16 N16            2.8885    -0.9428    -1.4930 N.am    
  17 C17            2.5154    -2.2085    -1.7674 C.2     
  18 C18            3.3713    -3.0696    -2.6601 C.3     
  19 O19            1.4907    -2.6544    -1.2960 O.2     
  20 C20           -2.0358     6.4430     0.2293 C.ar    
  21 C21           -1.7341     7.7324     0.6262 C.ar    
  22 C22           -2.1570     8.1931     1.8588 C.ar    
  23 C23           -2.8823     7.3636     2.6954 C.ar    
  24 C24           -3.1838     6.0732     2.2976 C.ar    
  25 C25           -2.7653     5.6155     1.0625 C.ar    
  26 Cl26          -3.4132     7.9413     4.2440 Cl      
  27 C27            3.4330     6.2602    -1.1561 C.3     
  28 N28            4.6033     5.3925    -0.9677 N.3     
  29 C29            5.8402     6.0864    -1.3508 C.3     
  30 C30            4.6800     4.9051     0.4159 C.3     
  31 H31           -0.2723     2.1630     1.3239 H       
  32 H32           -0.1347    -0.2394     1.8328 H       
  33 H33            1.3432    -1.6983     0.5140 H       
  34 H34            2.5650     1.6586    -1.8350 H       
  35 H35           -1.5186     6.7753    -1.8143 H       
  36 H36           -2.2814     5.2005    -1.4883 H       
  37 H37            3.7401    -0.6076    -1.8147 H       
  38 H38            4.2432    -2.5019    -2.9852 H       
  39 H39            3.6970    -3.9523    -2.1097 H       
  40 H40            2.7928    -3.3775    -3.5311 H       
  41 H41           -1.1676     8.3797    -0.0268 H       
  42 H42           -1.9209     9.2003     2.1689 H       
  43 H43           -3.7500     5.4252     2.9503 H       
  44 H44           -3.0007     4.6083     0.7518 H       
  45 H45            3.4585     6.6925    -2.1564 H       
  46 H46            3.4497     7.0589    -0.4146 H       
  47 H47            5.9628     6.9772    -0.7347 H       
  48 H48            6.6909     5.4215    -1.2015 H       
  49 H49            5.7847     6.3752    -2.4003 H       
  50 H50            3.7810     4.3352     0.6507 H       
  51 H51            5.5553     4.2653     0.5278 H       
  52 H52            4.7606     5.7531     1.0960 H       
@<TRIPOS>BOND
   1    1    2 ar
   2    1    6 ar
   3    1   31 1
   4    2    3 ar
   5    2   32 1
   6    3    4 ar
   7    3   33 1
   8    4    5 ar
   9    4   16 1
  10    5    6 ar
  11    5   34 1
  12    6    7 1
  13    7    8 am
  14    7   12 1
  15    8    9 am
  16    8   15 2
  17    9   10 am
  18    9   14 1
  19   10   11 1
  20   10   13 2
  21   11   12 2
  22   11   27 1
  23   14   20 1
  24   14   35 1
  25   14   36 1
  26   16   17 am
  27   16   37 1
  28   17   18 1
  29   17   19 2
  30   18   38 1
  31   18   39 1
  32   18   40 1
  33   20   21 ar
  34   20   25 ar
  35   21   22 ar
  36   21   41 1
  37   22   23 ar
  38   22   42 1
  39   23   24 ar
  40   23   26 1
  41   24   25 ar
  42   24   43 1
  43   25   44 1
  44   27   28 1
  45   27   45 1
  46   27   46 1
  47   28   29 1
  48   28   30 1
  49   29   47 1
  50   29   48 1
  51   29   49 1
  52   30   50 1
  53   30   51 1
  54   30   52 1

#	End of record

