#	Name: ASD01816622
#	Creating user name:	WinNT
#	Creation time:	15. 06. 2019 19:35

#	Modifying user name:	WinNT
#	Modification time:	15. 06. 2019 19:35

#	Program:	/corina/corina34_cracker 3.40 0067  02.08.2006

@<TRIPOS>MOLECULE
ASD01816622
  61   65    0    0    0
SMALL
NO_CHARGES


@<TRIPOS>ATOM
   1 C1            -0.0395     0.8802     0.4528 C.ar    
   2 C2             0.0423    -0.4998     0.3607 C.ar    
   3 C3             1.2671    -1.1264     0.2594 C.ar    
   4 C4             2.4359    -0.3734     0.2494 C.ar    
   5 C5             2.3496     1.0257     0.3429 C.ar    
   6 C6             1.1086     1.6457     0.4442 C.ar    
   7 N7             3.6681    -0.9959     0.1489 N.pl3   
   8 C8             4.8291    -0.3214     0.1342 C.2     
   9 C9             4.8695     1.0481     0.2191 C.2     
  10 C10            3.6020     1.8055     0.3303 C.2     
  11 C11            5.9204     2.0610     0.2309 C.2     
  12 N12            5.2934     3.2525     0.3374 N.am    
  13 N13            3.9096     3.0690     0.3948 N.2     
  14 O14            7.1234     1.8697     0.1595 O.2     
  15 C15            5.9382     4.4940     0.3842 C.ar    
  16 C16            5.6961     5.3647     1.4393 C.ar    
  17 C17            6.8256     4.8556    -0.6209 C.ar    
  18 C18            7.4605     6.0813    -0.5715 C.ar    
  19 C19            7.2137     6.9476     0.4776 C.ar    
  20 C20            6.3341     6.5885     1.4827 C.ar    
  21 C21            3.7074    -2.4573     0.0548 C.3     
  22 C22            3.6506    -2.8691    -1.3938 C.ar    
  23 C23            4.8211    -3.0217    -2.1140 C.ar    
  24 C24            4.7726    -3.3990    -3.4416 C.ar    
  25 C25            3.5462    -3.6252    -4.0534 C.ar    
  26 C26            2.3722    -3.4710    -3.3270 C.ar    
  27 C27            2.4282    -3.0990    -1.9981 C.ar    
  28 N28            3.4934    -4.0064    -5.3961 N.am    
  29 C29            4.7379     4.9742     2.5349 C.3     
  30 S30            2.3088    -5.0393    -5.9177 S.o2    
  31 O31            2.9097    -5.7473    -6.9932 O.2     
  32 O32            1.8890    -5.7144    -4.7399 O.2     
  33 C33            0.9944    -3.9487    -6.5290 C.3     
  34 S34            4.6156    -3.4255    -6.4664 S.o2    
  35 O35            3.9248    -3.3782    -7.7073 O.2     
  36 O36            5.1033    -2.2397    -5.8537 O.2     
  37 C37            5.9065    -4.6994    -6.5048 C.3     
  38 H38           -1.0049     1.3585     0.5271 H       
  39 H39           -0.8617    -1.0908     0.3687 H       
  40 H40            1.3182    -2.2028     0.1883 H       
  41 H41            1.0438     2.7214     0.5156 H       
  42 H42            5.7554    -0.8708     0.0539 H       
  43 H43            7.0193     4.1791    -1.4402 H       
  44 H44            8.1508     6.3631    -1.3528 H       
  45 H45            7.7120     7.9051     0.5143 H       
  46 H46            6.1433     7.2675     2.3006 H       
  47 H47            4.6312    -2.8254     0.5012 H       
  48 H48            2.8540    -2.8787     0.5861 H       
  49 H49            5.7743    -2.8454    -1.6379 H       
  50 H50            5.6872    -3.5177    -4.0037 H       
  51 H51            1.4170    -3.6461    -3.7996 H       
  52 H52            1.5159    -2.9792    -1.4326 H       
  53 H53            5.2814     4.4572     3.3257 H       
  54 H54            4.2677     5.8692     2.9424 H       
  55 H55            3.9715     4.3138     2.1290 H       
  56 H56            1.3820    -3.3315    -7.3395 H       
  57 H57            0.1638    -4.5514    -6.8964 H       
  58 H58            0.6476    -3.3079    -5.7183 H       
  59 H59            5.4517    -5.6719    -6.6937 H       
  60 H60            6.6187    -4.4712    -7.2976 H       
  61 H61            6.4245    -4.7207    -5.5460 H       
@<TRIPOS>BOND
   1    1    2 ar
   2    1    6 ar
   3    1   38 1
   4    2    3 ar
   5    2   39 1
   6    3    4 ar
   7    3   40 1
   8    4    5 ar
   9    4    7 1
  10    5    6 ar
  11    5   10 1
  12    6   41 1
  13    7    8 1
  14    7   21 1
  15    8    9 2
  16    8   42 1
  17    9   10 1
  18    9   11 1
  19   10   13 2
  20   11   12 am
  21   11   14 2
  22   12   13 1
  23   12   15 1
  24   15   16 ar
  25   15   17 ar
  26   16   29 1
  27   16   20 ar
  28   17   18 ar
  29   17   43 1
  30   18   19 ar
  31   18   44 1
  32   19   20 ar
  33   19   45 1
  34   20   46 1
  35   21   22 1
  36   21   47 1
  37   21   48 1
  38   22   23 ar
  39   22   27 ar
  40   23   24 ar
  41   23   49 1
  42   24   25 ar
  43   24   50 1
  44   25   26 ar
  45   25   28 1
  46   26   27 ar
  47   26   51 1
  48   27   52 1
  49   28   30 am
  50   28   34 am
  51   29   53 1
  52   29   54 1
  53   29   55 1
  54   30   31 2
  55   30   32 2
  56   30   33 1
  57   33   56 1
  58   33   57 1
  59   33   58 1
  60   34   35 2
  61   34   36 2
  62   34   37 1
  63   37   59 1
  64   37   60 1
  65   37   61 1

#	End of record

