#	Name: ASD01811146
#	Creating user name:	WinNT
#	Creation time:	15. 06. 2019 19:26

#	Modifying user name:	WinNT
#	Modification time:	15. 06. 2019 19:26

#	Program:	/corina/corina34_cracker 3.40 0067  02.08.2006

@<TRIPOS>MOLECULE
ASD01811146
  59   62    0    0    0
SMALL
NO_CHARGES


@<TRIPOS>ATOM
   1 C1            -0.0167     1.3795     0.0096 C.ar    
   2 C2             0.0021    -0.0041     0.0020 C.ar    
   3 C3            -1.1830    -0.7179     0.0090 C.ar    
   4 C4            -2.3959    -0.0438     0.0242 C.ar    
   5 C5            -2.4118     1.3503     0.0323 C.ar    
   6 C6            -1.2198     2.0581     0.0305 C.ar    
   7 O7            -3.6859    -0.4614     0.0344 O.3     
   8 C8            -4.4956     0.6090     0.0483 C.2     
   9 N9            -3.7527     1.7335     0.0475 N.am    
  10 O10           -5.7109     0.5701     0.0603 O.2     
  11 C11           -4.2609     3.1075     0.0610 C.3     
  12 C12           -5.1274     3.3447    -1.1789 C.3     
  13 C13           -5.7046     4.7612    -1.1284 C.3     
  14 N14           -6.5083     4.9205     0.0902 N.3     
  15 C15           -5.6871     4.7439     1.2947 C.3     
  16 C16           -5.1094     3.3269     1.3166 C.3     
  17 C17           -8.7270     7.7049     1.4011 C.3     
  18 C18           -8.0162     6.3501     1.3863 C.3     
  19 C19           -7.1908     6.2212     0.1044 C.3     
  20 C20           -6.1517     7.3430     0.0520 C.3     
  21 C21           -6.8625     8.6977     0.0668 C.3     
  22 C22           -7.6879     8.8266     1.3486 C.3     
  23 O23           -8.3518    10.0920     1.3625 O.3     
  24 C24           -8.1154     6.3253    -1.1101 C.3     
  25 C25           -8.5700    10.6196     2.6724 C.3     
  26 C26           -9.2834    11.9689     2.5665 C.3     
  27 C27            1.2794     2.1483     0.0014 C.3     
  28 F28           -1.1596    -2.0686     0.0007 F       
  29 H29            0.9459    -0.5290    -0.0098 H       
  30 H30           -1.2318     3.1380     0.0368 H       
  31 H31           -3.4237     3.8055     0.0594 H       
  32 H32           -4.5182     3.2318    -2.0757 H       
  33 H33           -5.9417     2.6204    -1.1978 H       
  34 H34           -4.8900     5.4854    -1.1235 H       
  35 H35           -6.3336     4.9284    -2.0028 H       
  36 H36           -4.8726     5.4681     1.2883 H       
  37 H37           -6.3034     4.8985     2.1803 H       
  38 H38           -5.9234     2.6023     1.3369 H       
  39 H39           -4.4873     3.2012     2.2028 H       
  40 H40           -9.3857     7.7790     0.5358 H       
  41 H41           -9.3150     7.7967     2.3143 H       
  42 H42           -7.3574     6.2759     2.2515 H       
  43 H43           -8.7564     5.5509     1.4236 H       
  44 H44           -5.4930     7.2688     0.9172 H       
  45 H45           -5.5637     7.2512    -0.8612 H       
  46 H46           -6.1222     9.4969     0.0294 H       
  47 H47           -7.5212     8.7719    -0.7985 H       
  48 H48           -7.0292     8.7525     2.2139 H       
  49 H49           -8.6218     7.2905    -1.0996 H       
  50 H50           -7.5274     6.2335    -2.0233 H       
  51 H51           -8.8557     5.5261    -1.0727 H       
  52 H52           -9.1863     9.9267     3.2452 H       
  53 H53           -7.6117    10.7536     3.1744 H       
  54 H54           -8.6670    12.6618     1.9937 H       
  55 H55          -10.2416    11.8348     2.0646 H       
  56 H56           -9.4498    12.3714     3.5657 H       
  57 H57            1.5821     2.3392    -1.0282 H       
  58 H58            1.1428     3.0964     0.5216 H       
  59 H59            2.0508     1.5655     0.5047 H       
@<TRIPOS>BOND
   1    1    2 ar
   2    1   27 1
   3    1    6 ar
   4    2    3 ar
   5    2   29 1
   6    3    4 ar
   7    3   28 1
   8    4    5 ar
   9    4    7 1
  10    5    6 ar
  11    5    9 1
  12    6   30 1
  13    7    8 1
  14    8    9 am
  15    8   10 2
  16    9   11 1
  17   11   12 1
  18   11   16 1
  19   11   31 1
  20   12   13 1
  21   12   32 1
  22   12   33 1
  23   13   14 1
  24   13   34 1
  25   13   35 1
  26   14   15 1
  27   14   19 1
  28   15   16 1
  29   15   36 1
  30   15   37 1
  31   16   38 1
  32   16   39 1
  33   17   18 1
  34   17   22 1
  35   17   40 1
  36   17   41 1
  37   18   19 1
  38   18   42 1
  39   18   43 1
  40   19   20 1
  41   19   24 1
  42   20   21 1
  43   20   44 1
  44   20   45 1
  45   21   22 1
  46   21   46 1
  47   21   47 1
  48   22   23 1
  49   22   48 1
  50   23   25 1
  51   24   49 1
  52   24   50 1
  53   24   51 1
  54   25   26 1
  55   25   52 1
  56   25   53 1
  57   26   54 1
  58   26   55 1
  59   26   56 1
  60   27   57 1
  61   27   58 1
  62   27   59 1

#	End of record

