#	Name: ASD01814881
#	Creating user name:	WinNT
#	Creation time:	15. 06. 2019 19:33

#	Modifying user name:	WinNT
#	Modification time:	15. 06. 2019 19:33

#	Program:	/corina/corina34_cracker 3.40 0067  02.08.2006

@<TRIPOS>MOLECULE
ASD01814881
  58   61    0    0    0
SMALL
NO_CHARGES


@<TRIPOS>ATOM
   1 C1             0.3069     1.1925     1.2263 C.2     
   2 C2             0.1597    -0.1527     0.8621 C.2     
   3 C3             1.2683    -0.9352     0.7205 C.2     
   4 C4             2.5390    -0.3789     0.9424 C.2     
   5 N5             2.6534     0.9377     1.2975 N.am    
   6 C6             1.5384     1.7101     1.4356 C.2     
   7 C7             3.6798    -1.1809     0.7977 C.2     
   8 C8             4.9189    -0.6505     1.0113 C.2     
   9 C9             5.0328     0.7039     1.3758 C.2     
  10 C10            3.8668     1.4843     1.5137 C.2     
  11 O11            3.9562     2.6590     1.8289 O.2     
  12 C12            6.3509     1.2972     1.6112 C.2     
  13 O13            6.4533     2.5961     1.9604 O.3     
  14 O14            7.3534     0.6186     1.4918 O.2     
  15 C15            3.5376    -2.6293     0.4066 C.3     
  16 N16            3.6898    -2.7609    -1.0486 N.3     
  17 C17            3.7944    -4.1730    -1.4416 C.3     
  18 C18            3.8713    -4.2708    -2.9671 C.3     
  19 N19            5.0312    -3.5064    -3.4465 N.3     
  20 C20            4.9267    -2.0943    -3.0534 C.3     
  21 C21            4.8498    -1.9965    -1.5280 C.3     
  22 H22            4.6933    -4.6068    -1.0036 H       
  23 C23            5.1762    -3.6317    -4.8327 C.ar    
  24 C24            4.2800    -3.0002    -5.6848 C.ar    
  25 C25            6.2198    -4.3830    -5.3569 C.ar    
  26 C26            6.3624    -4.5057    -6.7252 C.ar    
  27 C27            5.4640    -3.8785    -7.5755 C.ar    
  28 C28            4.4241    -3.1240    -7.0528 C.ar    
  29 C29            4.0211    -5.7371    -3.3776 C.3     
  30 C30            2.5927    -3.6966    -3.5805 C.3     
  31 O31            5.6057    -3.9992    -8.9227 O.3     
  32 C32            4.6446    -3.3269    -9.7390 C.3     
  33 H33           -0.5660     1.8190     1.3358 H       
  34 H34           -0.8236    -0.5668     0.6951 H       
  35 H35            1.1697    -1.9736     0.4406 H       
  36 H36            1.6400     2.7481     1.7162 H       
  37 H37            5.8017    -1.2631     0.9022 H       
  38 H38            7.3443     2.9429     2.1051 H       
  39 H39            4.3065    -3.2180     0.9070 H       
  40 H40            2.5529    -2.9907     0.7031 H       
  41 H41            2.9182    -4.7153    -1.0862 H       
  42 H42            5.8029    -1.5520    -3.4089 H       
  43 H43            4.0277    -1.6605    -3.4914 H       
  44 H44            4.7430    -0.9519    -1.2355 H       
  45 H45            5.7607    -2.4055    -1.0910 H       
  46 H46            3.4703    -2.4126    -5.2780 H       
  47 H47            6.9199    -4.8709    -4.6949 H       
  48 H48            7.1740    -5.0900    -7.1331 H       
  49 H49            3.7250    -2.6359    -7.7157 H       
  50 H50            3.2155    -6.3226    -2.9347 H       
  51 H51            3.9736    -5.8170    -4.4637 H       
  52 H52            4.9810    -6.1163    -3.0271 H       
  53 H53            2.5516    -2.6231    -3.3962 H       
  54 H54            2.5904    -3.8813    -4.6548 H       
  55 H55            1.7251    -4.1765    -3.1275 H       
  56 H56            3.6479    -3.7065    -9.5142 H       
  57 H57            4.6801    -2.2566    -9.5354 H       
  58 H58            4.8726    -3.5046   -10.7899 H       
@<TRIPOS>BOND
   1    1    2 1
   2    1    6 2
   3    1   33 1
   4    2    3 2
   5    2   34 1
   6    3    4 1
   7    3   35 1
   8    4    5 1
   9    4    7 2
  10    5    6 1
  11    5   10 am
  12    6   36 1
  13    7   15 1
  14    7    8 1
  15    8    9 2
  16    8   37 1
  17    9   10 1
  18    9   12 1
  19   10   11 2
  20   12   13 1
  21   12   14 2
  22   13   38 1
  23   15   16 1
  24   15   39 1
  25   15   40 1
  26   16   17 1
  27   16   21 1
  28   17   18 1
  29   17   22 1
  30   17   41 1
  31   18   19 1
  32   18   29 1
  33   18   30 1
  34   19   20 1
  35   19   23 1
  36   20   21 1
  37   20   42 1
  38   20   43 1
  39   21   44 1
  40   21   45 1
  41   23   24 ar
  42   23   25 ar
  43   24   28 ar
  44   24   46 1
  45   25   26 ar
  46   25   47 1
  47   26   27 ar
  48   26   48 1
  49   27   28 ar
  50   27   31 1
  51   28   49 1
  52   29   50 1
  53   29   51 1
  54   29   52 1
  55   30   53 1
  56   30   54 1
  57   30   55 1
  58   31   32 1
  59   32   56 1
  60   32   57 1
  61   32   58 1

#	End of record

