#	Name: ASD01411190
#	Creating user name:	WinNT
#	Creation time:	15. 06. 2019 19:19

#	Modifying user name:	WinNT
#	Modification time:	15. 06. 2019 19:19

#	Program:	/corina/corina34_cracker 3.40 0067  02.08.2006

@<TRIPOS>MOLECULE
ASD01411190
  81   85    0    0    0
SMALL
NO_CHARGES


@<TRIPOS>ATOM
   1 C1             0.5401     2.4711     1.7350 C.ar    
   2 C2             0.4760     1.2066     2.3034 C.ar    
   3 C3             1.5723     0.3710     2.2180 C.ar    
   4 N4             2.6735     0.7608     1.6049 N.ar    
   5 C5             2.7728     1.9582     1.0510 C.ar    
   6 C6             1.7094     2.8505     1.0988 C.ar    
   7 C7             6.1132     1.8025     1.2093 C.ar    
   8 C8             4.9762     1.4582     0.4883 C.ar    
   9 O9             3.9244     2.3179     0.4304 O.3     
  10 C10            7.1867     0.9375     1.2742 C.ar    
  11 C11            7.1377    -0.2845     0.6179 C.ar    
  12 C12            5.9923    -0.6383    -0.1115 C.ar    
  13 C13            4.9111     0.2442    -0.1710 C.ar    
  14 N14            8.2227    -1.1574     0.6830 N.am    
  15 C15            8.8880    -1.4904    -0.4407 C.2     
  16 C16            8.5125    -0.8557    -1.7549 C.3     
  17 O17            9.7890    -2.3010    -0.3943 O.2     
  18 C18            9.3330    -1.4892    -2.8802 C.3     
  19 C19            8.8006     0.6458    -1.6968 C.3     
  20 C20           10.2904     0.8694    -1.4297 C.3     
  21 C21           11.1109     0.2358    -2.5550 C.3     
  22 C22           10.8229    -1.2657    -2.6131 C.3     
  23 C23           12.6008     0.4593    -2.2880 C.3     
  24 C24            8.6396    -1.7127     1.9730 C.3     
  25 C25            7.8833    -1.0070     3.1004 C.3     
  26 C26            6.3793    -1.2189     2.9161 C.3     
  27 C27            6.0671    -2.7163     2.9517 C.3     
  28 C28            6.8234    -3.4219     1.8243 C.3     
  29 C29            8.3274    -3.2100     2.0086 C.3     
  30 O30            9.0338    -3.8691     0.9556 O.3     
  31 C31            9.3855    -5.2225     1.2498 C.3     
  32 C32           10.1222    -5.8164     0.0770 C.ar    
  33 C33           11.4991    -5.7177     0.0039 C.ar    
  34 C34           12.1749    -6.2625    -1.0720 C.ar    
  35 C35           11.4739    -6.9062    -2.0745 C.ar    
  36 C36           10.0971    -7.0057    -2.0009 C.ar    
  37 C37            9.4216    -6.4647    -0.9229 C.ar    
  38 C38            5.9309    -1.9335    -0.8122 C.2     
  39 O39            6.9175    -2.6405    -0.8698 O.2     
  40 O40            4.7807    -2.3337    -1.3890 O.3     
  41 C41            1.8272     4.2133     0.4665 C.3     
  42 F42            0.6317     4.9168     0.6488 F       
  43 F43            2.8779     4.9162     1.0657 F       
  44 F44            2.0812     4.0721    -0.9020 F       
  45 H45           -0.3047     3.1422     1.7840 H       
  46 H46           -0.4214     0.8796     2.8075 H       
  47 H47            1.5277    -0.6138     2.6589 H       
  48 H48            6.1589     2.7542     1.7180 H       
  49 H49            8.0669     1.2122     1.8365 H       
  50 H50            4.0261    -0.0211    -0.7304 H       
  51 H51            7.4511    -1.0149    -1.9452 H       
  52 H52            9.1278    -2.5589    -2.9216 H       
  53 H53            9.0614    -1.0301    -3.8307 H       
  54 H54            8.5290     1.1050    -2.6473 H       
  55 H55            8.2160     1.0972    -0.8951 H       
  56 H56           10.4957     1.9391    -1.3883 H       
  57 H57           10.5620     0.4102    -0.4792 H       
  58 H58           10.8393     0.6949    -3.5056 H       
  59 H59           11.0945    -1.7248    -1.6626 H       
  60 H60           11.4074    -1.7170    -3.4148 H       
  61 H61           12.8724     0.0002    -1.3374 H       
  62 H62           13.1853     0.0080    -3.0896 H       
  63 H63           12.8060     1.5290    -2.2466 H       
  64 H64            9.7111    -1.5617     2.1043 H       
  65 H65            8.1935    -1.4202     4.0602 H       
  66 H66            8.1058     0.0597     3.0751 H       
  67 H67            5.8405    -0.7162     3.7193 H       
  68 H68            6.0691    -0.8058     1.9564 H       
  69 H69            6.3773    -3.1294     3.9115 H       
  70 H70            4.9956    -2.8672     2.8204 H       
  71 H71            6.6009    -4.4886     1.8496 H       
  72 H72            6.5131    -3.0087     0.8645 H       
  73 H73            8.6376    -3.6232     2.9683 H       
  74 H74           10.0255    -5.2481     2.1317 H       
  75 H75            8.4807    -5.7997     1.4406 H       
  76 H76           12.0468    -5.2148     0.7871 H       
  77 H77           13.2506    -6.1848    -1.1295 H       
  78 H78           12.0018    -7.3312    -2.9154 H       
  79 H79            9.5493    -7.5083    -2.7843 H       
  80 H80            8.3460    -6.5424    -0.8654 H       
  81 H81            4.7891    -3.1907    -1.8370 H       
@<TRIPOS>BOND
   1    1    2 ar
   2    1    6 ar
   3    1   45 1
   4    2    3 ar
   5    2   46 1
   6    3    4 ar
   7    3   47 1
   8    4    5 ar
   9    5    6 ar
  10    5    9 1
  11    6   41 1
  12    7    8 ar
  13    7   10 ar
  14    7   48 1
  15    8    9 1
  16    8   13 ar
  17   10   11 ar
  18   10   49 1
  19   11   12 ar
  20   11   14 1
  21   12   13 ar
  22   12   38 1
  23   13   50 1
  24   14   15 am
  25   14   24 1
  26   15   17 2
  27   15   16 1
  28   16   18 1
  29   16   19 1
  30   16   51 1
  31   18   22 1
  32   18   52 1
  33   18   53 1
  34   19   20 1
  35   19   54 1
  36   19   55 1
  37   20   21 1
  38   20   56 1
  39   20   57 1
  40   21   22 1
  41   21   23 1
  42   21   58 1
  43   22   59 1
  44   22   60 1
  45   23   61 1
  46   23   62 1
  47   23   63 1
  48   24   25 1
  49   24   29 1
  50   24   64 1
  51   25   26 1
  52   25   65 1
  53   25   66 1
  54   26   27 1
  55   26   67 1
  56   26   68 1
  57   27   28 1
  58   27   69 1
  59   27   70 1
  60   28   29 1
  61   28   71 1
  62   28   72 1
  63   29   30 1
  64   29   73 1
  65   30   31 1
  66   31   32 1
  67   31   74 1
  68   31   75 1
  69   32   33 ar
  70   32   37 ar
  71   33   34 ar
  72   33   76 1
  73   34   35 ar
  74   34   77 1
  75   35   36 ar
  76   35   78 1
  77   36   37 ar
  78   36   79 1
  79   37   80 1
  80   38   39 2
  81   38   40 1
  82   40   81 1
  83   41   42 1
  84   41   43 1
  85   41   44 1

#	End of record

