#	Name: ASD03330606
#	Creating user name:	WinNT
#	Creation time:	15. 06. 2019 20:37

#	Modifying user name:	WinNT
#	Modification time:	15. 06. 2019 20:37

#	Program:	/corina/corina34_cracker 3.40 0067  02.08.2006

@<TRIPOS>MOLECULE
ASD03330606
  59   61    0    0    0
SMALL
NO_CHARGES


@<TRIPOS>ATOM
   1 C1            -0.3231     2.0831    -1.2106 C.2     
   2 N2            -0.5100     0.7979    -1.5884 N.pl3   
   3 C3             1.0142     2.2523    -1.0072 C.2     
   4 N4             1.6231     1.0791    -1.2792 N.2     
   5 C5             0.7159     0.2004    -1.6349 C.2     
   6 C6             0.9782    -1.2036    -2.0215 C.ar    
   7 C7             1.6764     3.4941    -0.5692 C.2     
   8 O8             1.0158     4.4924    -0.3546 O.2     
   9 C9             3.6722     4.7576     0.0288 C.3     
  10 N10            3.0140     3.5233    -0.4065 N.am    
  11 C11            3.6318     4.8459     1.5557 C.3     
  12 C12            4.2403     3.5771     2.1563 C.3     
  13 C13            4.4339     6.0642     2.0175 C.3     
  14 C14            2.1807     4.9848     2.0204 C.3     
  15 C15            5.1055     4.7536    -0.4364 C.2     
  16 N16            5.7575     5.9187    -0.6206 N.am    
  17 O17            5.6724     3.7019    -0.6450 O.2     
  18 C18            7.1113     5.9199    -1.1805 C.3     
  19 C19           -1.8054     0.1760    -1.8764 C.3     
  20 C20           -2.6138     1.0989    -2.7934 C.3     
  21 C21           -3.4076     2.0939    -1.9526 C.3     
  22 N22           -2.6729     2.4602    -0.7399 N.3     
  23 C23           -1.4024     3.1246    -1.0658 C.3     
  24 C24           -3.4956     3.3003     0.1406 C.3     
  25 C25            0.1578    -3.2484    -2.7112 C.ar    
  26 C26            1.4290    -3.7930    -2.7369 C.ar    
  27 C27            2.5150    -3.0043    -2.3837 C.ar    
  28 C28            2.2858    -1.6888    -2.0202 C.ar    
  29 N29           -0.0336    -1.9932    -2.3615 N.ar    
  30 H30            3.1539     5.6160    -0.3986 H       
  31 H31            3.5408     2.7271    -0.5777 H       
  32 H32            5.2741     3.4782     1.8252 H       
  33 H33            4.2116     3.6400     3.2441 H       
  34 H34            3.6689     2.7092     1.8273 H       
  35 H35            3.9786     6.9711     1.6197 H       
  36 H36            4.4360     6.1063     3.1067 H       
  37 H37            5.4587     5.9831     1.6551 H       
  38 H38            1.6092     4.1169     1.6914 H       
  39 H39            2.1519     5.0477     3.1082 H       
  40 H40            1.7471     5.8888     1.5926 H       
  41 H41            5.3304     6.7564    -0.3825 H       
  42 H42            7.4728     6.9455    -1.2548 H       
  43 H43            7.7736     5.3474    -0.5311 H       
  44 H44            7.0948     5.4677    -2.1721 H       
  45 H45           -1.6473    -0.7821    -2.3716 H       
  46 H46           -2.3497     0.0201    -0.9450 H       
  47 H47           -1.9350     1.6410    -3.4518 H       
  48 H48           -3.3007     0.5024    -3.3938 H       
  49 H49           -3.5952     2.9912    -2.5422 H       
  50 H50           -4.3605     1.6452    -1.6720 H       
  51 H51           -1.1369     3.8156    -0.2657 H       
  52 H52           -1.5076     3.6729    -2.0020 H       
  53 H53           -4.3943     2.7544     0.4279 H       
  54 H54           -2.9259     3.5578     1.0335 H       
  55 H55           -3.7772     4.2120    -0.3863 H       
  56 H56           -0.6892    -3.8599    -2.9856 H       
  57 H57            1.5746    -4.8236    -3.0249 H       
  58 H58            3.5169    -3.4072    -2.3957 H       
  59 H59            3.1078    -1.0469    -1.7398 H       
@<TRIPOS>BOND
   1    1    2 1
   2    1    3 2
   3    1   23 1
   4    2   19 1
   5    2    5 1
   6    3    4 1
   7    3    7 1
   8    4    5 2
   9    5    6 1
  10    6   29 ar
  11    6   28 ar
  12    7    8 2
  13    7   10 am
  14    9   10 1
  15    9   11 1
  16    9   15 1
  17    9   30 1
  18   10   31 1
  19   11   12 1
  20   11   13 1
  21   11   14 1
  22   12   32 1
  23   12   33 1
  24   12   34 1
  25   13   35 1
  26   13   36 1
  27   13   37 1
  28   14   38 1
  29   14   39 1
  30   14   40 1
  31   15   16 am
  32   15   17 2
  33   16   18 1
  34   16   41 1
  35   18   42 1
  36   18   43 1
  37   18   44 1
  38   19   20 1
  39   19   45 1
  40   19   46 1
  41   20   21 1
  42   20   47 1
  43   20   48 1
  44   21   22 1
  45   21   49 1
  46   21   50 1
  47   22   23 1
  48   22   24 1
  49   23   51 1
  50   23   52 1
  51   24   53 1
  52   24   54 1
  53   24   55 1
  54   25   26 ar
  55   25   29 ar
  56   25   56 1
  57   26   27 ar
  58   26   57 1
  59   27   28 ar
  60   27   58 1
  61   28   59 1

#	End of record

