#	Name: ASD01910800
#	Creating user name:	WinNT
#	Creation time:	15. 06. 2019 19:56

#	Modifying user name:	WinNT
#	Modification time:	15. 06. 2019 19:56

#	Program:	/corina/corina34_cracker 3.40 0067  02.08.2006

@<TRIPOS>MOLECULE
ASD01910800
  49   52    0    0    0
SMALL
NO_CHARGES


@<TRIPOS>ATOM
   1 C1            -0.0927     1.7120     0.3156 C.ar    
   2 C2            -0.0079     0.3115     0.3301 C.ar    
   3 C3            -1.1688    -0.4135     0.2896 C.ar    
   4 C4            -2.3903     0.2543     0.2356 C.ar    
   5 N5            -2.4430     1.5791     0.2230 N.ar    
   6 C6            -1.3513     2.3143     0.2665 C.ar    
   7 N7            -3.5671    -0.4766     0.1940 N.3     
   8 C8            -4.7364     0.4110     0.1404 C.3     
   9 C9            -5.9994    -0.4267    -0.0865 C.3     
  10 N10           -6.0587    -1.4718     0.9467 N.am    
  11 C11           -4.8709    -2.3142     1.1534 C.3     
  12 C12           -3.6524    -1.4022     1.3315 C.3     
  13 C13           -7.1719    -1.6525     1.6848 C.2     
  14 C14           -7.2570    -2.7876     2.6285 C.ar    
  15 O15           -8.1058    -0.8823     1.5746 O.2     
  16 C16           -7.8738    -2.6306     3.8713 C.ar    
  17 N17           -7.9541    -3.6359     4.7191 N.ar    
  18 C18           -7.4631    -4.8261     4.4409 C.ar    
  19 C19           -6.8287    -5.0725     3.2194 C.ar    
  20 C20           -6.7264    -4.0345     2.2873 C.ar    
  21 C21           -6.2966    -6.3690     2.9250 C.1     
  22 C22           -5.8604    -7.4319     2.6837 C.1     
  23 C23           -5.3284    -8.7284     2.3893 C.ar    
  24 C24           -4.6958    -8.9665     1.1663 C.ar    
  25 C25           -4.1854   -10.2176     0.8900 C.ar    
  26 C26           -4.2984   -11.2357     1.8203 C.ar    
  27 C27           -4.9240   -11.0074     3.0334 C.ar    
  28 C28           -5.4341    -9.7599     3.3260 C.ar    
  29 C29            1.0943     2.5120     0.3565 C.1     
  30 N30            2.0360     3.1467     0.3890 N.1     
  31 H31            0.9511    -0.1834     0.3719 H       
  32 H32           -1.1378    -1.4930     0.2991 H       
  33 H33           -1.4299     3.3914     0.2550 H       
  34 H34           -4.8243     0.9540     1.0815 H       
  35 H35           -4.6179     1.1197    -0.6792 H       
  36 H36           -6.8801     0.2113    -0.0129 H       
  37 H37           -5.9600    -0.8888    -1.0729 H       
  38 H38           -5.0055    -2.9241     2.0467 H       
  39 H39           -4.7230    -2.9577     0.2862 H       
  40 H40           -2.7477    -2.0086     1.3757 H       
  41 H41           -3.7554    -0.8340     2.2559 H       
  42 H42           -8.2906    -1.6716     4.1416 H       
  43 H43           -7.5513    -5.6218     5.1658 H       
  44 H44           -6.2432    -4.1901     1.3340 H       
  45 H45           -4.6072    -8.1730     0.4391 H       
  46 H46           -3.6965   -10.4033    -0.0550 H       
  47 H47           -3.8969   -12.2134     1.5985 H       
  48 H48           -5.0089   -11.8068     3.7546 H       
  49 H49           -5.9217    -9.5830     4.2733 H       
@<TRIPOS>BOND
   1    1    2 ar
   2    1   29 1
   3    1    6 ar
   4    2    3 ar
   5    2   31 1
   6    3    4 ar
   7    3   32 1
   8    4    5 ar
   9    4    7 1
  10    5    6 ar
  11    6   33 1
  12    7    8 1
  13    7   12 1
  14    8    9 1
  15    8   34 1
  16    8   35 1
  17    9   10 1
  18    9   36 1
  19    9   37 1
  20   10   11 1
  21   10   13 am
  22   11   12 1
  23   11   38 1
  24   11   39 1
  25   12   40 1
  26   12   41 1
  27   13   14 1
  28   13   15 2
  29   14   16 ar
  30   14   20 ar
  31   16   17 ar
  32   16   42 1
  33   17   18 ar
  34   18   19 ar
  35   18   43 1
  36   19   20 ar
  37   19   21 1
  38   20   44 1
  39   21   22 3
  40   22   23 1
  41   23   24 ar
  42   23   28 ar
  43   24   25 ar
  44   24   45 1
  45   25   26 ar
  46   25   46 1
  47   26   27 ar
  48   26   47 1
  49   27   28 ar
  50   27   48 1
  51   28   49 1
  52   29   30 3

#	End of record

