#	Name: ASD03730278
#	Creating user name:	WinNT
#	Creation time:	15. 06. 2019 20:44

#	Modifying user name:	WinNT
#	Modification time:	15. 06. 2019 20:44

#	Program:	/corina/corina34_cracker 3.40 0067  02.08.2006

@<TRIPOS>MOLECULE
ASD03730278
  54   59    0    0    0
SMALL
NO_CHARGES


@<TRIPOS>ATOM
   1 O1            -0.0175     1.4356     0.0099 O.3     
   2 C2             0.0021    -0.0041     0.0020 C.3     
   3 O3             1.2460    -0.3254    -0.6478 O.3     
   4 C4             2.0713     0.7344    -0.4022 C.ar    
   5 C5             1.2934     1.8179    -0.0005 C.ar    
   6 C6             3.4457     0.8646    -0.4886 C.ar    
   7 C7             4.0605     2.0741    -0.1800 C.ar    
   8 C8             3.2720     3.1529     0.2088 C.ar    
   9 C9             1.9019     3.0243     0.3029 C.ar    
  10 O10            5.3838     2.4046    -0.1817 O.3     
  11 C11            4.2093     4.3080     0.4386 C.3     
  12 C12            5.5148     3.8387    -0.2181 C.3     
  13 N13            3.6167     6.4803     0.8283 N.am    
  14 C14            3.7025     5.5823    -0.1734 C.2     
  15 C15            4.3944     4.6132     1.8952 C.ar    
  16 C16            4.8332     3.8690     2.9849 C.ar    
  17 C17            4.8932     4.4601     4.2493 C.ar    
  18 C18            4.5161     5.7787     4.4055 C.ar    
  19 C19            4.0815     6.5161     3.3226 C.ar    
  20 C20            4.0162     5.9409     2.0542 C.ar    
  21 O21            3.4254     5.7673    -1.3396 O.2     
  22 C22            3.1588     7.8608     0.6524 C.3     
  23 C23            1.6429     7.9243     0.8494 C.3     
  24 C24            1.1647     9.3660     0.6657 C.3     
  25 C25           -0.3512     9.4295     0.8627 C.3     
  26 C26           -0.8294    10.8712     0.6790 C.3     
  27 O27            4.5181     1.5063     2.1767 O.3     
  28 C28            5.2341     2.4577     2.8062 C.2     
  29 C29            6.3899     1.8946     3.2482 C.2     
  30 C30            6.3559     0.5402     2.8602 C.2     
  31 C31            5.1933     0.3458     2.2075 C.2     
  32 H32           -0.0098    -0.3929     1.0202 H       
  33 H33           -0.8403    -0.3954    -0.5684 H       
  34 H34            4.0458     0.0215    -0.7974 H       
  35 H35            1.3020     3.8668     0.6139 H       
  36 H36            6.3786     4.1634     0.3621 H       
  37 H37            5.5812     4.1955    -1.2459 H       
  38 H38            5.2326     3.8882     5.1002 H       
  39 H39            4.5610     6.2367     5.3826 H       
  40 H40            3.7898     7.5470     3.4590 H       
  41 H41            3.6477     8.5020     1.3858 H       
  42 H42            3.4092     8.2014    -0.3523 H       
  43 H43            1.1540     7.2831     0.1160 H       
  44 H44            1.3925     7.5837     1.8541 H       
  45 H45            1.6536    10.0072     1.3991 H       
  46 H46            1.4151     9.7066    -0.3390 H       
  47 H47           -0.8401     8.7883     0.1293 H       
  48 H48           -0.6016     9.0889     1.8674 H       
  49 H49           -0.3405    11.5125     1.4124 H       
  50 H50           -0.5790    11.2118    -0.3257 H       
  51 H51           -1.9094    10.9165     0.8194 H       
  52 H52            7.1814     2.3897     3.7912 H       
  53 H53            7.1175    -0.2015     3.0501 H       
  54 H54            4.8598    -0.5883     1.7800 H       
@<TRIPOS>BOND
   1    1    2 1
   2    1    5 1
   3    2    3 1
   4    2   32 1
   5    2   33 1
   6    3    4 1
   7    4    5 ar
   8    4    6 ar
   9    5    9 ar
  10    6    7 ar
  11    6   34 1
  12    7    8 ar
  13    7   10 1
  14    8    9 ar
  15    8   11 1
  16    9   35 1
  17   10   12 1
  18   11   12 1
  19   11   14 1
  20   11   15 1
  21   12   36 1
  22   12   37 1
  23   13   14 am
  24   13   20 1
  25   13   22 1
  26   14   21 2
  27   15   16 ar
  28   15   20 ar
  29   16   17 ar
  30   16   28 1
  31   17   18 ar
  32   17   38 1
  33   18   19 ar
  34   18   39 1
  35   19   20 ar
  36   19   40 1
  37   22   23 1
  38   22   41 1
  39   22   42 1
  40   23   24 1
  41   23   43 1
  42   23   44 1
  43   24   25 1
  44   24   45 1
  45   24   46 1
  46   25   26 1
  47   25   47 1
  48   25   48 1
  49   26   49 1
  50   26   50 1
  51   26   51 1
  52   27   28 1
  53   27   31 1
  54   28   29 2
  55   29   30 1
  56   29   52 1
  57   30   31 2
  58   30   53 1
  59   31   54 1

#	End of record

