#	Name: ASD03320089
#	Creating user name:	WinNT
#	Creation time:	15. 06. 2019 20:36

#	Modifying user name:	WinNT
#	Modification time:	15. 06. 2019 20:36

#	Program:	/corina/corina34_cracker 3.40 0067  02.08.2006

@<TRIPOS>MOLECULE
ASD03320089
  45   47    0    0    0
SMALL
NO_CHARGES


@<TRIPOS>ATOM
   1 C1            -0.0181     1.4706     0.0148 C.2     
   2 C2             0.0015    -0.0045     0.0118 C.ar    
   3 C3             1.2205    -0.7002     0.0013 C.ar    
   4 C4             1.1911    -2.0690    -0.0012 C.ar    
   5 C5            -0.0388    -2.7267     0.0066 C.ar    
   6 N6            -1.1758    -2.0449     0.0165 N.ar    
   7 C7            -1.1918    -0.7281     0.0251 C.ar    
   8 O8             1.0269     2.0925     0.0082 O.2     
   9 N9            -1.1941     2.1289     0.0193 N.am    
  10 C10           -1.2149     3.5246     0.1327 C.ar    
  11 C11           -2.1832     4.2615    -0.5363 C.ar    
  12 C12           -2.2033     5.6376    -0.4236 C.ar    
  13 C13           -1.2565     6.2839     0.3576 C.ar    
  14 C14           -0.2886     5.5484     1.0258 C.ar    
  15 C15           -0.2707     4.1718     0.9187 C.ar    
  16 O16           -1.2769     7.6390     0.4681 O.3     
  17 C17           -0.2723     8.2382     1.2889 C.3     
  18 F18            0.9931     7.9213     0.7834 F       
  19 F19           -0.4392     9.6272     1.2910 F       
  20 F20           -0.3874     7.7527     2.5959 F       
  21 N21           -0.0728    -4.1113     0.0037 N.3     
  22 C22           -1.4662    -4.6073     0.0132 C.3     
  23 C23           -1.4769    -5.9084     0.8368 C.3     
  24 C24           -0.0185    -6.0962     1.3140 C.3     
  25 C25            0.5614    -4.6620     1.2287 C.3     
  26 C26           -1.9051    -7.0877    -0.0389 C.3     
  27 O27           -2.0216    -8.2619     0.7671 O.3     
  28 Br28           2.8026    -3.0584    -0.0159 Br      
  29 H29            2.1602    -0.1679    -0.0050 H       
  30 H30           -2.1360    -0.2040     0.0377 H       
  31 H31           -2.0262     1.6360    -0.0560 H       
  32 H32           -2.9202     3.7586    -1.1448 H       
  33 H33           -2.9562     6.2110    -0.9441 H       
  34 H34            0.4485     6.0522     1.6336 H       
  35 H35            0.4800     3.5989     1.4428 H       
  36 H36           -2.1200    -3.8688     0.4770 H       
  37 H37           -1.7950    -4.8103    -1.0060 H       
  38 H38           -2.1451    -5.8092     1.6922 H       
  39 H39            0.0073    -6.4623     2.3404 H       
  40 H40            0.5211    -6.7707     0.6491 H       
  41 H41            1.6456    -4.6912     1.1207 H       
  42 H42            0.2765    -4.0791     2.1046 H       
  43 H43           -2.8676    -6.8669    -0.5004 H       
  44 H44           -1.1589    -7.2530    -0.8160 H       
  45 H45           -2.2904    -9.0507     0.2765 H       
@<TRIPOS>BOND
   1    1    2 1
   2    1    8 2
   3    1    9 am
   4    2    3 ar
   5    2    7 ar
   6    3    4 ar
   7    3   29 1
   8    4    5 ar
   9    4   28 1
  10    5    6 ar
  11    5   21 1
  12    6    7 ar
  13    7   30 1
  14    9   10 1
  15    9   31 1
  16   10   11 ar
  17   10   15 ar
  18   11   12 ar
  19   11   32 1
  20   12   13 ar
  21   12   33 1
  22   13   14 ar
  23   13   16 1
  24   14   15 ar
  25   14   34 1
  26   15   35 1
  27   16   17 1
  28   17   18 1
  29   17   19 1
  30   17   20 1
  31   21   22 1
  32   21   25 1
  33   22   23 1
  34   22   36 1
  35   22   37 1
  36   23   24 1
  37   23   26 1
  38   23   38 1
  39   24   25 1
  40   24   39 1
  41   24   40 1
  42   25   41 1
  43   25   42 1
  44   26   27 1
  45   26   43 1
  46   26   44 1
  47   27   45 1

#	End of record

