#	Name: ASD02500121
#	Creating user name:	WinNT
#	Creation time:	15. 06. 2019 20:22

#	Modifying user name:	WinNT
#	Modification time:	15. 06. 2019 20:22

#	Program:	/corina/corina34_cracker 3.40 0067  02.08.2006

@<TRIPOS>MOLECULE
ASD02500121
  62   66    0    0    0
SMALL
NO_CHARGES


@<TRIPOS>ATOM
   1 N1             1.9463     4.1330    -1.1947 N.ar    
   2 C2             2.9052     3.8958    -0.3331 C.ar    
   3 C3             4.0515     3.1878    -0.6882 C.ar    
   4 C4             4.1966     2.7209    -1.9634 C.ar    
   5 C5             3.1645     2.9772    -2.8860 C.ar    
   6 C6             3.2432     2.5292    -4.2142 C.ar    
   7 C7             2.2240     2.7978    -5.0764 C.ar    
   8 C8             1.1034     3.5121    -4.6582 C.ar    
   9 C9             0.9943     3.9613    -3.3780 C.ar    
  10 C10            2.0256     3.7040    -2.4583 C.ar    
  11 S11           -0.4338     4.8629    -2.8758 S.o2    
  12 O12            0.0391     6.0148    -2.1912 O.2     
  13 O13           -1.2864     4.9287    -4.0108 O.2     
  14 N14           -1.2245     3.9413    -1.7498 N.am    
  15 C15           -1.7711     2.7158    -2.1142 C.ar    
  16 C16           -1.5837     1.6021    -1.3002 C.ar    
  17 C17           -2.1234     0.3878    -1.6580 C.ar    
  18 C18           -2.8604     0.2734    -2.8404 C.ar    
  19 C19           -3.0468     1.3936    -3.6556 C.ar    
  20 C20           -2.5094     2.6064    -3.2894 C.ar    
  21 C21           -3.4399    -1.0269    -3.2272 C.2     
  22 O22           -4.5658    -1.0792    -3.6834 O.2     
  23 N23           -2.7214    -2.1570    -3.0749 N.am    
  24 C24           -3.2503    -3.4477    -3.5374 C.3     
  25 C25           -2.2337    -4.0785    -4.4969 C.3     
  26 N26           -0.9069    -4.0420    -3.8658 N.am    
  27 C27           -0.3779    -2.7512    -3.4033 C.3     
  28 C28           -1.3923    -2.1196    -2.4488 C.3     
  29 C29           -0.1884    -5.1720    -3.7135 C.2     
  30 C30            1.1856    -5.1070    -3.1716 C.ar    
  31 C31            2.1382    -4.2570    -3.7466 C.ar    
  32 C32            3.4096    -4.2330    -3.2015 C.ar    
  33 C33            3.6964    -5.0418    -2.1162 C.ar    
  34 N34            2.7785    -5.8333    -1.5953 N.ar    
  35 C35            1.5532    -5.8872    -2.0749 C.ar    
  36 O36           -0.6700    -6.2446    -4.0218 O.2     
  37 C37            0.5413    -6.8043    -1.4377 C.3     
  38 H38            2.8042     4.2590     0.6790 H       
  39 H39            4.8248     3.0088     0.0441 H       
  40 H40            5.0786     2.1706    -2.2561 H       
  41 H41            4.1072     1.9751    -4.5502 H       
  42 H42            2.2853     2.4528    -6.0980 H       
  43 H43            0.3086     3.7129    -5.3613 H       
  44 H44           -1.3063     4.2564    -0.8361 H       
  45 H45           -1.0139     1.6910    -0.3870 H       
  46 H46           -1.9773    -0.4759    -1.0263 H       
  47 H47           -3.6154     1.3083    -4.5698 H       
  48 H48           -2.6571     3.4732    -3.9164 H       
  49 H49           -3.4050    -4.1069    -2.6832 H       
  50 H50           -4.1954    -3.2906    -4.0573 H       
  51 H51           -2.5141    -5.1122    -4.6993 H       
  52 H52           -2.2111    -3.5138    -5.4290 H       
  53 H53            0.5671    -2.9083    -2.8834 H       
  54 H54           -0.2232    -2.0920    -4.2575 H       
  55 H55           -1.1105    -1.0855    -2.2500 H       
  56 H56           -1.4116    -2.6820    -1.5153 H       
  57 H57            1.8871    -3.6364    -4.5941 H       
  58 H58            4.1703    -3.5901    -3.6191 H       
  59 H59            4.6881    -5.0251    -1.6887 H       
  60 H60            0.6407    -7.8043    -1.8599 H       
  61 H61            0.7142    -6.8450    -0.3623 H       
  62 H62           -0.4630    -6.4269    -1.6302 H       
@<TRIPOS>BOND
   1    1    2 ar
   2    1   10 ar
   3    2    3 ar
   4    2   38 1
   5    3    4 ar
   6    3   39 1
   7    4    5 ar
   8    4   40 1
   9    5    6 ar
  10    5   10 ar
  11    6    7 ar
  12    6   41 1
  13    7    8 ar
  14    7   42 1
  15    8    9 ar
  16    8   43 1
  17    9   10 ar
  18    9   11 1
  19   11   12 2
  20   11   13 2
  21   11   14 am
  22   14   15 1
  23   14   44 1
  24   15   16 ar
  25   15   20 ar
  26   16   17 ar
  27   16   45 1
  28   17   18 ar
  29   17   46 1
  30   18   19 ar
  31   18   21 1
  32   19   20 ar
  33   19   47 1
  34   20   48 1
  35   21   22 2
  36   21   23 am
  37   23   24 1
  38   23   28 1
  39   24   25 1
  40   24   49 1
  41   24   50 1
  42   25   26 1
  43   25   51 1
  44   25   52 1
  45   26   27 1
  46   26   29 am
  47   27   28 1
  48   27   53 1
  49   27   54 1
  50   28   55 1
  51   28   56 1
  52   29   30 1
  53   29   36 2
  54   30   31 ar
  55   30   35 ar
  56   31   32 ar
  57   31   57 1
  58   32   33 ar
  59   32   58 1
  60   33   34 ar
  61   33   59 1
  62   34   35 ar
  63   35   37 1
  64   37   60 1
  65   37   61 1
  66   37   62 1

#	End of record

