#	Name: ASD02198065
#	Creating user name:	WinNT
#	Creation time:	15. 06. 2019 20:18

#	Modifying user name:	WinNT
#	Modification time:	15. 06. 2019 20:18

#	Program:	/corina/corina34_cracker 3.40 0067  02.08.2006

@<TRIPOS>MOLECULE
ASD02198065
  56   59    0    0    0
SMALL
NO_CHARGES


@<TRIPOS>ATOM
   1 C1            -0.0176     1.3653    -0.0370 C.2     
   2 C2             0.0040    -0.0130    -0.0476 C.2     
   3 C3            -1.1841    -0.8124    -0.0590 C.1     
   4 S4             1.5657     1.9977    -0.0258 S.3     
   5 C5             2.2776     0.3922    -0.0354 C.2     
   6 C6             1.2869    -0.5582    -0.0467 C.2     
   7 C7             3.6610     0.1199    -0.0327 C.2     
   8 C8             4.6312     1.2262    -0.1479 C.2     
   9 O9             4.0560    -1.0300     0.0649 O.2     
  10 N10            1.5371    -1.9224    -0.0558 N.pl3   
  11 N11           -1.1626     2.1279    -0.0410 N.pl3   
  12 N12           -2.1266    -1.4465    -0.0680 N.1     
  13 C13            5.1513     2.0137     0.8464 C.2     
  14 O14            5.9850     2.8737     0.2545 O.3     
  15 N15            6.0507     2.7297    -0.9416 N.2     
  16 C16            5.2863     1.7538    -1.3623 C.2     
  17 C17            5.1079     1.2860    -2.7585 C.ar    
  18 C18           -1.0690     3.5899    -0.0288 C.3     
  19 C19           -3.6977     6.2667     0.2075 C.3     
  20 N20           -2.3820     5.6570    -0.0240 N.3     
  21 C21           -2.4759     4.1911    -0.0362 C.3     
  22 C22           -3.5401     7.7814     0.3588 C.3     
  23 C23           -2.9084     8.3535    -0.9133 C.3     
  24 C24           -1.5615     7.6674    -1.1579 C.3     
  25 C25           -1.7766     6.1560    -1.2653 C.3     
  26 C26            4.8426     1.9268     2.3189 C.3     
  27 C27            5.1356     2.1991    -3.8110 C.ar    
  28 C28            4.9695     1.7582    -5.1082 C.ar    
  29 C29            4.7758     0.4128    -5.3646 C.ar    
  30 C30            4.7469    -0.4979    -4.3238 C.ar    
  31 C31            4.9176    -0.0690    -3.0232 C.ar    
  32 H32            2.4509    -2.2479    -0.0544 H       
  33 H33            0.7984    -2.5510    -0.0637 H       
  34 H34           -2.0318     1.6977    -0.0519 H       
  35 H35           -0.5407     3.9127     0.8684 H       
  36 H36           -0.5253     3.9266    -0.9115 H       
  37 H37           -4.3512     6.0523    -0.6382 H       
  38 H38           -4.1341     5.8543     1.1172 H       
  39 H39           -3.0042     3.8683    -0.9334 H       
  40 H40           -3.0195     3.8544     0.8465 H       
  41 H41           -4.5187     8.2353     0.5150 H       
  42 H42           -2.8978     7.9969     1.2127 H       
  43 H43           -3.5688     8.1723    -1.7612 H       
  44 H44           -2.7544     9.4258    -0.7930 H       
  45 H45           -1.1265     8.0399    -2.0854 H       
  46 H46           -0.8882     7.8811    -0.3279 H       
  47 H47           -0.8176     5.6632    -1.4253 H       
  48 H48           -2.4390     5.9421    -2.1040 H       
  49 H49            5.4817     1.1740     2.7803 H       
  50 H50            5.0253     2.8945     2.7862 H       
  51 H51            3.7974     1.6491     2.4552 H       
  52 H52            5.2865     3.2499    -3.6119 H       
  53 H53            4.9905     2.4649    -5.9246 H       
  54 H54            4.6462     0.0721    -6.3813 H       
  55 H55            4.5946    -1.5471    -4.5298 H       
  56 H56            4.8949    -0.7809    -2.2114 H       
@<TRIPOS>BOND
   1    1    2 2
   2    1    4 1
   3    1   11 1
   4    2    3 1
   5    2    6 1
   6    3   12 3
   7    4    5 1
   8    5    6 2
   9    5    7 1
  10    6   10 1
  11    7    8 1
  12    7    9 2
  13    8   13 2
  14    8   16 1
  15   10   32 1
  16   10   33 1
  17   11   18 1
  18   11   34 1
  19   13   14 1
  20   13   26 1
  21   14   15 1
  22   15   16 2
  23   16   17 1
  24   17   27 ar
  25   17   31 ar
  26   18   21 1
  27   18   35 1
  28   18   36 1
  29   19   20 1
  30   19   22 1
  31   19   37 1
  32   19   38 1
  33   20   21 1
  34   20   25 1
  35   21   39 1
  36   21   40 1
  37   22   23 1
  38   22   41 1
  39   22   42 1
  40   23   24 1
  41   23   43 1
  42   23   44 1
  43   24   25 1
  44   24   45 1
  45   24   46 1
  46   25   47 1
  47   25   48 1
  48   26   49 1
  49   26   50 1
  50   26   51 1
  51   27   28 ar
  52   27   52 1
  53   28   29 ar
  54   28   53 1
  55   29   30 ar
  56   29   54 1
  57   30   31 ar
  58   30   55 1
  59   31   56 1

#	End of record

