#	Name: ASD02038061
#	Creating user name:	WinNT
#	Creation time:	15. 06. 2019 20:16

#	Modifying user name:	WinNT
#	Modification time:	15. 06. 2019 20:16

#	Program:	/corina/corina34_cracker 3.40 0067  02.08.2006

@<TRIPOS>MOLECULE
ASD02038061
  56   58    0    0    0
SMALL
NO_CHARGES


@<TRIPOS>ATOM
   1 O1            -0.5881     1.5285    -0.1099 O.3     
   2 N2             0.8905     3.3225     0.0877 N.am    
   3 C3             0.6649     1.9943     0.0506 C.2     
   4 C4             1.2220     6.8889     2.3851 C.3     
   5 O5             0.3113     7.9578     2.1202 O.3     
   6 C6             0.2135     8.9333     3.0625 C.ar    
   7 C7            -0.6517    10.0001     2.8688 C.ar    
   8 C8             0.9746     8.8581     4.2197 C.ar    
   9 C9             0.8751     9.8479     5.1776 C.ar    
  10 C10            0.0133    10.9187     4.9819 C.ar    
  11 C11           -0.7515    10.9910     3.8254 C.ar    
  12 O12            1.5924     1.2172     0.1621 O.2     
  13 N13           -0.0886    11.9233     5.9537 N.am    
  14 C14           -0.7564     0.0866    -0.1405 C.3     
  15 C15            1.0018    12.2995     6.6509 C.2     
  16 N16            0.9253    13.3286     7.5179 N.am    
  17 O17            2.0544    11.7105     6.4977 O.2     
  18 C18            2.1105    13.7375     8.2757 C.3     
  19 C19           -2.7337    -0.3892    -1.5988 C.ar    
  20 C20           -2.2147    -0.2450    -0.3260 C.ar    
  21 C21           -4.0724    -0.6936    -1.7695 C.ar    
  22 C22           -4.8915    -0.8537    -0.6649 C.ar    
  23 C23           -4.3702    -0.7094     0.6085 C.ar    
  24 C24           -3.0326    -0.4053     0.7772 C.ar    
  25 Cl25          -4.7250    -0.8743    -3.3680 Cl      
  26 Cl26          -6.5717    -1.2351    -0.8774 Cl      
  27 C27            2.2522     3.8460     0.2623 C.3     
  28 C28            2.2586     4.8185     1.4459 C.3     
  29 C29            1.1951     5.8959     1.2214 C.3     
  30 C30           -0.1864     5.2423     1.1407 C.3     
  31 C31           -0.2198     4.2746    -0.0519 C.3     
  32 H32            2.2294     7.2894     2.4977 H       
  33 H33            0.9283     6.3805     3.3034 H       
  34 H34           -1.2471    10.0559     1.9695 H       
  35 H35            1.6450     8.0251     4.3719 H       
  36 H36            1.4672     9.7889     6.0788 H       
  37 H37           -1.4221    11.8237     3.6726 H       
  38 H38           -0.9438    12.3478     6.1246 H       
  39 H39           -0.1812    -0.3289    -0.9679 H       
  40 H40           -0.4032    -0.3404     0.7981 H       
  41 H41            0.0856    13.7984     7.6401 H       
  42 H42            2.8995    14.0337     7.5844 H       
  43 H43            1.8572    14.5794     8.9200 H       
  44 H44            2.4568    12.9038     8.8865 H       
  45 H45           -2.0952    -0.2599    -2.4602 H       
  46 H46           -5.0085    -0.8345     1.4706 H       
  47 H47           -2.6259    -0.2931     1.7714 H       
  48 H48            2.9375     3.0223     0.4625 H       
  49 H49            2.5613     4.3694    -0.6425 H       
  50 H50            2.0377     4.2751     2.3645 H       
  51 H51            3.2395     5.2869     1.5266 H       
  52 H52            1.4026     6.4226     0.2900 H       
  53 H53           -0.3843     4.6948     2.0623 H       
  54 H54           -0.9458     6.0123     1.0043 H       
  55 H55           -0.1129     4.8353    -0.9805 H       
  56 H56           -1.1657     3.7329    -0.0566 H       
@<TRIPOS>BOND
   1    1   14 1
   2    1    3 1
   3    2    3 am
   4    2   27 1
   5    2   31 1
   6    3   12 2
   7    4    5 1
   8    4   29 1
   9    4   32 1
  10    4   33 1
  11    5    6 1
  12    6    7 ar
  13    6    8 ar
  14    7   11 ar
  15    7   34 1
  16    8    9 ar
  17    8   35 1
  18    9   10 ar
  19    9   36 1
  20   10   11 ar
  21   10   13 1
  22   11   37 1
  23   13   15 am
  24   13   38 1
  25   14   20 1
  26   14   39 1
  27   14   40 1
  28   15   16 am
  29   15   17 2
  30   16   18 1
  31   16   41 1
  32   18   42 1
  33   18   43 1
  34   18   44 1
  35   19   20 ar
  36   19   21 ar
  37   19   45 1
  38   20   24 ar
  39   21   22 ar
  40   21   25 1
  41   22   23 ar
  42   22   26 1
  43   23   24 ar
  44   23   46 1
  45   24   47 1
  46   27   28 1
  47   27   48 1
  48   27   49 1
  49   28   29 1
  50   28   50 1
  51   28   51 1
  52   29   30 1
  53   29   52 1
  54   30   31 1
  55   30   53 1
  56   30   54 1
  57   31   55 1
  58   31   56 1

#	End of record

