#	Name: ASD02198479
#	Creating user name:	WinNT
#	Creation time:	15. 06. 2019 20:19

#	Modifying user name:	WinNT
#	Modification time:	15. 06. 2019 20:19

#	Program:	/corina/corina34_cracker 3.40 0067  02.08.2006

@<TRIPOS>MOLECULE
ASD02198479
  38   41    0    0    0
SMALL
NO_CHARGES


@<TRIPOS>ATOM
   1 C1            -0.0439     1.5051    -0.1136 C.2     
   2 C2            -0.0745     0.1655     0.0993 C.2     
   3 N3             1.0694    -0.5368     0.2620 N.pl3   
   4 N4             2.2343    -0.0030     0.2275 N.2     
   5 C5             2.4068     1.2860     0.0285 C.2     
   6 C6             1.2215     2.1382    -0.1596 C.2     
   7 C7             0.9769    -1.9158     0.4794 C.ar    
   8 C8             1.4825    -3.8513     1.8077 C.ar    
   9 C9             0.7935    -4.6446     0.9093 C.ar    
  10 C10            0.2014    -4.0793    -0.2056 C.ar    
  11 C11            0.2909    -2.7185    -0.4230 C.ar    
  12 C12            3.7643     1.8672    -0.0046 C.2     
  13 N13            4.3066     2.6062    -1.0182 N.pl3   
  14 N14            5.6087     2.9573    -0.6406 N.2     
  15 C15            5.8522     2.4585     0.5451 C.2     
  16 C16            4.7200     1.7715     0.9831 C.2     
  17 C17            3.6737     2.9506    -2.2193 C.ar    
  18 C18            2.9064     2.0115    -2.8957 C.ar    
  19 O19            1.3253     3.3410    -0.3482 O.2     
  20 C20            1.5767    -2.4874     1.5970 C.ar    
  21 C21            3.8077     4.2337    -2.7333 C.ar    
  22 C22            3.1824     4.5702    -3.9179 C.ar    
  23 C23            2.4236     3.6310    -4.5920 C.ar    
  24 C24            2.2836     2.3542    -4.0798 C.ar    
  25 F25            2.2502    -1.7119     2.4746 F       
  26 H26           -0.9549     2.0694    -0.2481 H       
  27 H27           -1.0247    -0.3463     0.1396 H       
  28 H28            1.9433    -4.2960     2.6773 H       
  29 H29            0.7214    -5.7092     1.0760 H       
  30 H30           -0.3359    -4.7026    -0.9050 H       
  31 H31           -0.1723    -2.2786    -1.2938 H       
  32 H32            6.7758     2.5645     1.0948 H       
  33 H33            4.6139     1.2525     1.9242 H       
  34 H34            2.7970     1.0140    -2.4963 H       
  35 H35            4.3999     4.9678    -2.2071 H       
  36 H36            3.2859     5.5680    -4.3180 H       
  37 H37            1.9356     3.8966    -5.5182 H       
  38 H38            1.6904     1.6229    -4.6086 H       
@<TRIPOS>BOND
   1    1    2 2
   2    1    6 1
   3    1   26 1
   4    2    3 1
   5    2   27 1
   6    3    4 1
   7    3    7 1
   8    4    5 2
   9    5    6 1
  10    5   12 1
  11    6   19 2
  12    7   20 ar
  13    7   11 ar
  14    8    9 ar
  15    8   20 ar
  16    8   28 1
  17    9   10 ar
  18    9   29 1
  19   10   11 ar
  20   10   30 1
  21   11   31 1
  22   12   13 1
  23   12   16 2
  24   13   14 1
  25   13   17 1
  26   14   15 2
  27   15   16 1
  28   15   32 1
  29   16   33 1
  30   17   21 ar
  31   17   18 ar
  32   18   24 ar
  33   18   34 1
  34   20   25 1
  35   21   22 ar
  36   21   35 1
  37   22   23 ar
  38   22   36 1
  39   23   24 ar
  40   23   37 1
  41   24   38 1

#	End of record

