#	Name: ASD04880446
#	Creating user name:	WinNT
#	Creation time:	15. 06. 2019 20:53

#	Modifying user name:	WinNT
#	Modification time:	15. 06. 2019 20:53

#	Program:	/corina/corina34_cracker 3.40 0067  02.08.2006

@<TRIPOS>MOLECULE
ASD04880446
  42   44    0    0    0
SMALL
NO_CHARGES


@<TRIPOS>ATOM
   1 C1            -0.0053     1.3604     0.3069 C.ar    
   2 C2             0.0100    -0.0229     0.2729 C.ar    
   3 C3            -1.1745    -0.7279     0.2241 C.ar    
   4 C4            -2.3915    -0.0422     0.2088 C.ar    
   5 C5            -2.3992     1.3543     0.2433 C.ar    
   6 C6            -1.2071     2.0460     0.2978 C.ar    
   7 C7            -3.6620    -0.7890     0.1561 C.2     
   8 N8            -3.7691    -2.0724     0.1215 N.2     
   9 N9            -5.0833    -2.5330     0.0747 N.am    
  10 C10           -5.9932    -1.3765     0.0788 C.3     
  11 C11           -5.0399    -0.1666     0.1410 C.3     
  12 C12           -5.4596    -3.8265     0.0321 C.2     
  13 C13           -4.4400    -4.8890    -0.0944 C.ar    
  14 O14           -6.6379    -4.1193     0.0978 O.2     
  15 C15           -3.1057    -4.5537    -0.3140 C.ar    
  16 C16           -2.1509    -5.5615    -0.4316 C.ar    
  17 C17           -2.5364    -6.9000    -0.3287 C.ar    
  18 C18           -3.8608    -7.2256    -0.1109 C.ar    
  19 C19           -4.8112    -6.2319     0.0118 C.ar    
  20 S20            1.5128     2.2527     0.3692 S.o     
  21 C21            1.9111     2.5031    -1.3827 C.3     
  22 O22            1.1314     3.4921     0.9501 O.2     
  23 C23           -0.7326    -5.2149    -0.6653 C.2     
  24 O24           -0.3985    -4.0497    -0.7550 O.2     
  25 N25            0.1898    -6.1910    -0.7788 N.am    
  26 H26            0.9516    -0.5517     0.2844 H       
  27 H27           -1.1611    -1.8075     0.1973 H       
  28 H28           -3.3364     1.8908     0.2314 H       
  29 H29           -1.2116     3.1257     0.3244 H       
  30 H30           -6.5889    -1.3538    -0.8337 H       
  31 H31           -6.6371    -1.3982     0.9580 H       
  32 H32           -5.2145     0.4115     1.0485 H       
  33 H33           -5.1601     0.4607    -0.7422 H       
  34 H34           -2.8128    -3.5172    -0.3932 H       
  35 H35           -1.7973    -7.6821    -0.4200 H       
  36 H36           -4.1535    -8.2622    -0.0321 H       
  37 H37           -5.8451    -6.4933     0.1821 H       
  38 H38            1.1115     3.0697    -1.8597 H       
  39 H39            2.8475     3.0547    -1.4671 H       
  40 H40            2.0138     1.5355    -1.8739 H       
  41 H41           -0.0767    -7.1209    -0.7071 H       
  42 H42            1.1203    -5.9636    -0.9321 H       
@<TRIPOS>BOND
   1    1    2 ar
   2    1   20 1
   3    1    6 ar
   4    2    3 ar
   5    2   26 1
   6    3    4 ar
   7    3   27 1
   8    4    5 ar
   9    4    7 1
  10    5    6 ar
  11    5   28 1
  12    6   29 1
  13    7    8 2
  14    7   11 1
  15    8    9 1
  16    9   10 1
  17    9   12 am
  18   10   11 1
  19   10   30 1
  20   10   31 1
  21   11   32 1
  22   11   33 1
  23   12   13 1
  24   12   14 2
  25   13   15 ar
  26   13   19 ar
  27   15   16 ar
  28   15   34 1
  29   16   17 ar
  30   16   23 1
  31   17   18 ar
  32   17   35 1
  33   18   19 ar
  34   18   36 1
  35   19   37 1
  36   20   21 1
  37   20   22 2
  38   21   38 1
  39   21   39 1
  40   21   40 1
  41   23   24 2
  42   23   25 am
  43   25   41 1
  44   25   42 1

#	End of record

