#	Name: ASD05473004
#	Creating user name:	WinNT
#	Creation time:	15. 06. 2019 21:00

#	Modifying user name:	WinNT
#	Modification time:	15. 06. 2019 21:00

#	Program:	/corina/corina34_cracker 3.40 0067  02.08.2006

@<TRIPOS>MOLECULE
ASD05473004
  37   39    0    0    0
SMALL
NO_CHARGES


@<TRIPOS>ATOM
   1 C1            -0.0167     1.3838     0.0097 C.ar    
   2 C2             0.0021    -0.0041     0.0020 C.ar    
   3 C3             1.1975    -0.6868    -0.0130 C.ar    
   4 C4             2.4013     0.0224    -0.0207 C.ar    
   5 C5             2.3765     1.4274    -0.0129 C.ar    
   6 C6             1.1620     2.0986     0.0022 C.ar    
   7 N7             3.7070    -0.3504    -0.0351 N.2     
   8 C8             4.4639     0.7079    -0.0367 C.2     
   9 N9             3.6971     1.8314    -0.0233 N.pl3   
  10 C10            5.9707     0.6913    -0.0511 C.3     
  11 C11            6.4828    -0.1485     1.1208 C.3     
  12 C12            6.0601    -1.6061     0.9269 C.3     
  13 C13            7.9863    -0.0650     1.1795 C.ar    
  14 C14            8.6069     0.4392     2.3072 C.ar    
  15 C15            9.9858     0.5160     2.3616 C.ar    
  16 C16           10.7451     0.0882     1.2871 C.ar    
  17 C17           10.1235    -0.4164     0.1588 C.ar    
  18 C18            8.7447    -0.4979     0.1078 C.ar    
  19 Cl19          12.4771     0.1849     1.3545 Cl      
  20 I20           -1.8025    -1.0681     0.0142 I       
  21 C21            6.4571    -2.4097     2.1383 C.2     
  22 O22            7.0202    -1.8718     3.0621 O.2     
  23 O23            6.1850    -3.7230     2.1912 O.3     
  24 H24           -0.9614     1.9073     0.0169 H       
  25 H25            1.2048    -1.7668    -0.0186 H       
  26 H26            1.1403     3.1784     0.0079 H       
  27 H27            4.0183     2.7466    -0.0215 H       
  28 H28            6.3204     0.2584    -0.9884 H       
  29 H29            6.3462     1.7105     0.0408 H       
  30 H30            6.0612     0.2313     2.0515 H       
  31 H31            4.9792    -1.6566     0.7956 H       
  32 H32            6.5528    -2.0128     0.0437 H       
  33 H33            8.0140     0.7735     3.1458 H       
  34 H34           10.4704     0.9103     3.2426 H       
  35 H35           10.7157    -0.7505    -0.6803 H       
  36 H36            8.2594    -0.8917    -0.7730 H       
  37 H37            6.4589    -4.1964     2.9887 H       
@<TRIPOS>BOND
   1    1    2 ar
   2    1    6 ar
   3    1   24 1
   4    2    3 ar
   5    2   20 1
   6    3    4 ar
   7    3   25 1
   8    4    5 ar
   9    4    7 1
  10    5    6 ar
  11    5    9 1
  12    6   26 1
  13    7    8 2
  14    8    9 1
  15    8   10 1
  16    9   27 1
  17   10   11 1
  18   10   28 1
  19   10   29 1
  20   11   12 1
  21   11   13 1
  22   11   30 1
  23   12   21 1
  24   12   31 1
  25   12   32 1
  26   13   14 ar
  27   13   18 ar
  28   14   15 ar
  29   14   33 1
  30   15   16 ar
  31   15   34 1
  32   16   17 ar
  33   16   19 1
  34   17   18 ar
  35   17   35 1
  36   18   36 1
  37   21   22 2
  38   21   23 1
  39   23   37 1

#	End of record

