#	Name: ASD01941065
#	Creating user name:	WinNT
#	Creation time:	15. 06. 2019 20:13

#	Modifying user name:	WinNT
#	Modification time:	15. 06. 2019 20:13

#	Program:	/corina/corina34_cracker 3.40 0067  02.08.2006

@<TRIPOS>MOLECULE
ASD01941065
  47   49    0    0    0
SMALL
NO_CHARGES


@<TRIPOS>ATOM
   1 C1            -0.8728     1.3851     0.3133 C.3     
   2 C2            -1.3540    -0.0412     0.5819 C.3     
   3 N3            -2.6460    -0.0910     1.2487 N.am    
   4 C4            -2.7025    -0.0072     2.5977 C.2     
   5 C5            -1.4626     0.4365     3.2679 C.2     
   6 C6            -0.7305     1.4780     2.8012 C.2     
   7 C7            -1.1083     2.2506     1.5541 C.3     
   8 O8            -3.7122    -0.2799     3.2207 O.2     
   9 C9             0.6209     1.3648    -0.0173 C.3     
  10 C10           -1.6481     1.9699    -0.8690 C.3     
  11 S11           -0.7374    -0.2495     4.7048 S.3     
  12 C12            0.5351     0.8867     4.6695 C.2     
  13 C13            0.3895     1.7371     3.5933 C.2     
  14 N14            1.5606     0.9462     5.5846 N.pl3   
  15 C15            1.6824    -0.0453     6.5643 C.ar    
  16 C16            1.4845    -1.3786     6.2330 C.ar    
  17 C17            1.6059    -2.3558     7.2024 C.ar    
  18 C18            1.9238    -2.0075     8.5024 C.ar    
  19 C19            2.1221    -0.6797     8.8376 C.ar    
  20 C20            2.0079     0.3025     7.8715 C.ar    
  21 F21            2.2014     1.5990     8.1985 F       
  22 I22            2.1051    -3.4937     9.9679 I       
  23 C23            1.3325     2.8219     3.3050 C.2     
  24 O24            2.2954     2.6169     2.5910 O.2     
  25 O25            1.1321     4.0472     3.8315 O.3     
  26 C26            1.7146     6.3849     4.1863 C.3     
  27 C27            2.1060     5.0729     3.5034 C.3     
  28 H28           -1.4291    -0.5706    -0.3680 H       
  29 H29           -0.6177    -0.5481     1.2057 H       
  30 H30           -3.4605    -0.1832     0.7302 H       
  31 H31           -0.4986     3.1518     1.4880 H       
  32 H32           -2.1605     2.5301     1.6062 H       
  33 H33            0.7887     0.7517    -0.9028 H       
  34 H34            0.9645     2.3814    -0.2088 H       
  35 H35            1.1736     0.9469     0.8241 H       
  36 H36           -2.7125     1.9833    -0.6345 H       
  37 H37           -1.3055     2.9867    -1.0609 H       
  38 H38           -1.4786     1.3563    -1.7538 H       
  39 H39            2.1992     1.6755     5.5506 H       
  40 H40            1.2354    -1.6520     5.2183 H       
  41 H41            1.4518    -3.3931     6.9444 H       
  42 H42            2.3703    -0.4109     9.8538 H       
  43 H43            1.6901     6.2392     5.2662 H       
  44 H44            2.4457     7.1549     3.9401 H       
  45 H45            0.7291     6.6953     3.8391 H       
  46 H46            3.0915     4.7626     3.8506 H       
  47 H47            2.1305     5.2186     2.4235 H       
@<TRIPOS>BOND
   1    1    2 1
   2    1    9 1
   3    1   10 1
   4    1    7 1
   5    2    3 1
   6    2   28 1
   7    2   29 1
   8    3    4 am
   9    3   30 1
  10    4    5 1
  11    4    8 2
  12    5    6 2
  13    5   11 1
  14    6    7 1
  15    6   13 1
  16    7   31 1
  17    7   32 1
  18    9   33 1
  19    9   34 1
  20    9   35 1
  21   10   36 1
  22   10   37 1
  23   10   38 1
  24   11   12 1
  25   12   13 2
  26   12   14 1
  27   13   23 1
  28   14   15 1
  29   14   39 1
  30   15   16 ar
  31   15   20 ar
  32   16   17 ar
  33   16   40 1
  34   17   18 ar
  35   17   41 1
  36   18   19 ar
  37   18   22 1
  38   19   20 ar
  39   19   42 1
  40   20   21 1
  41   23   24 2
  42   23   25 1
  43   25   27 1
  44   26   27 1
  45   26   43 1
  46   26   44 1
  47   26   45 1
  48   27   46 1
  49   27   47 1

#	End of record

