#	Name: ASD01903147
#	Creating user name:	WinNT
#	Creation time:	15. 06. 2019 19:54

#	Modifying user name:	WinNT
#	Modification time:	15. 06. 2019 19:54

#	Program:	/corina/corina34_cracker 3.40 0067  02.08.2006

@<TRIPOS>MOLECULE
ASD01903147
  46   49    0    0    0
SMALL
NO_CHARGES


@<TRIPOS>ATOM
   1 C1             1.2687    -1.6630     0.4121 C.ar    
   2 C2             0.3830    -1.0444    -0.4559 C.ar    
   3 C3             0.7828     0.0947    -1.1369 C.ar    
   4 N4             1.9880     0.5934    -0.9697 N.ar    
   5 C5             2.8664     0.0315    -0.1479 C.ar    
   6 C6             2.5325    -1.1153     0.5687 C.ar    
   7 C7             4.2127     0.6291     0.0082 C.2     
   8 N8             4.5417     1.7387    -0.6825 N.am    
   9 O9             5.0206     0.1189     0.7591 O.2     
  10 C10            5.7760     2.3583    -0.4635 C.ar    
  11 C11            6.8993     1.5916    -0.1816 C.ar    
  12 C12            8.1169     2.2067     0.0342 C.ar    
  13 C13            8.2183     3.5843    -0.0301 C.ar    
  14 C14            7.1017     4.3506    -0.3101 C.ar    
  15 C15            5.8825     3.7414    -0.5330 C.ar    
  16 S16            9.7736     4.3651     0.2459 S.o2    
  17 O17            9.4912     5.7211     0.5632 O.2     
  18 O18           10.5088     3.5030     1.1035 O.2     
  19 N19           10.5777     4.3813    -1.2017 N.am    
  20 C20           10.9064     3.1766    -1.8330 C.ar    
  21 C21           10.6671     3.0162    -3.1905 C.ar    
  22 C22           10.9927     1.8221    -3.8158 C.ar    
  23 C23           11.5621     0.7886    -3.0817 C.ar    
  24 C24           11.7993     0.9521    -1.7250 C.ar    
  25 C25           11.4777     2.1429    -1.1027 C.ar    
  26 O26           10.7442     1.6768    -5.1462 O.3     
  27 C27           11.4242     0.6095    -5.8155 C.3     
  28 C28           11.3001    -0.6547    -4.9543 C.3     
  29 O29           11.8961    -0.3889    -3.6799 O.3     
  30 H30            0.9794    -2.5491     0.9576 H       
  31 H31           -0.6090    -1.4461    -0.6006 H       
  32 H32            0.0953     0.5791    -1.8144 H       
  33 H33            3.2481    -1.5715     1.2366 H       
  34 H34            3.9222     2.1075    -1.3315 H       
  35 H35            6.8207     0.5157    -0.1309 H       
  36 H36            8.9907     1.6111     0.2537 H       
  37 H37            7.1843     5.4263    -0.3592 H       
  38 H38            5.0108     4.3404    -0.7516 H       
  39 H39           10.8207     5.2260    -1.6121 H       
  40 H40           10.2268     3.8213    -3.7599 H       
  41 H41           12.2396     0.1478    -1.1544 H       
  42 H42           11.6639     2.2672    -0.0461 H       
  43 H43           10.9675     0.4366    -6.7900 H       
  44 H44           12.4760     0.8660    -5.9423 H       
  45 H45           10.2482    -0.9079    -4.8225 H       
  46 H46           11.8201    -1.4815    -5.4380 H       
@<TRIPOS>BOND
   1    1    2 ar
   2    1    6 ar
   3    1   30 1
   4    2    3 ar
   5    2   31 1
   6    3    4 ar
   7    3   32 1
   8    4    5 ar
   9    5    6 ar
  10    5    7 1
  11    6   33 1
  12    7    8 am
  13    7    9 2
  14    8   10 1
  15    8   34 1
  16   10   11 ar
  17   10   15 ar
  18   11   12 ar
  19   11   35 1
  20   12   13 ar
  21   12   36 1
  22   13   14 ar
  23   13   16 1
  24   14   15 ar
  25   14   37 1
  26   15   38 1
  27   16   17 2
  28   16   18 2
  29   16   19 am
  30   19   20 1
  31   19   39 1
  32   20   21 ar
  33   20   25 ar
  34   21   22 ar
  35   21   40 1
  36   22   23 ar
  37   22   26 1
  38   23   24 ar
  39   23   29 1
  40   24   25 ar
  41   24   41 1
  42   25   42 1
  43   26   27 1
  44   27   28 1
  45   27   43 1
  46   27   44 1
  47   28   29 1
  48   28   45 1
  49   28   46 1

#	End of record

