#	Name: ASD08150578
#	Creating user name:	WinNT
#	Creation time:	15. 06. 2019 21:16

#	Modifying user name:	WinNT
#	Modification time:	15. 06. 2019 21:16

#	Program:	/corina/corina34_cracker 3.40 0067  02.08.2006

@<TRIPOS>MOLECULE
ASD08150578
  47   51    0    0    0
SMALL
NO_CHARGES


@<TRIPOS>ATOM
   1 N1             0.1073     1.4509     2.0374 N.am    
   2 C2             0.1946     0.1892     2.5015 C.2     
   3 C3             1.4133    -0.5176     2.4517 C.2     
   4 C4             2.5219     0.0683     1.9320 C.2     
   5 C5             2.4337     1.3955     1.4424 C.ar    
   6 C6             3.5532     2.0492     0.8931 C.ar    
   7 N7             3.4690     3.2733     0.4418 N.ar    
   8 C8             2.3246     3.9729     0.4742 C.ar    
   9 C9             1.1476     3.3943     1.0097 C.ar    
  10 C10            1.2053     2.0711     1.5069 C.ar    
  11 C11           -0.0517     5.4258     0.5435 C.ar    
  12 C12            1.1169     5.9914     0.0146 C.ar    
  13 C13            2.2793     5.2863    -0.0214 C.ar    
  14 O14           -0.7937    -0.3485     2.9712 O.2     
  15 C15           -1.1163     2.1298     2.0932 C.ar    
  16 C16           -2.0330     1.9968     1.0588 C.ar    
  17 C17           -3.2393     2.6669     1.1161 C.ar    
  18 C18           -3.5347     3.4712     2.2038 C.ar    
  19 C19           -2.6215     3.6057     3.2364 C.ar    
  20 C20           -1.4169     2.9327     3.1861 C.ar    
  21 C21           -0.0397     4.1322     1.0397 C.ar    
  22 C22           -1.3068     6.2155     0.5715 C.ar    
  23 C23           -2.5319     5.6028     0.3221 C.ar    
  24 F24           -4.7151     4.1262     2.2576 F       
  25 N25           -3.6498     6.3002     0.3462 N.ar    
  26 C26           -3.6556     7.5992     0.6058 C.ar    
  27 C27           -2.4699     8.2809     0.8644 C.ar    
  28 C28           -1.2766     7.5859     0.8545 C.ar    
  29 N29           -4.8608     8.2902     0.6197 N.pl3   
  30 C30           -1.7116     1.1223    -0.1256 C.3     
  31 F31           -2.7804     1.1480    -1.0279 F       
  32 F32           -0.5570     1.5976    -0.7567 F       
  33 F33           -1.4990    -0.1907     0.3081 F       
  34 H34            1.4651    -1.5283     2.8286 H       
  35 H35            3.4579    -0.4690     1.8924 H       
  36 H36            4.4990     1.5300     0.8439 H       
  37 H37            1.0938     7.0005    -0.3697 H       
  38 H38            3.1703     5.7378    -0.4320 H       
  39 H39           -3.9526     2.5636     0.3117 H       
  40 H40           -2.8535     4.2341     4.0836 H       
  41 H41           -0.7051     3.0377     3.9915 H       
  42 H42           -0.9407     3.6971     1.4462 H       
  43 H43           -2.5664     4.5451     0.1064 H       
  44 H44           -2.4834     9.3402     1.0745 H       
  45 H45           -0.3417     8.0893     1.0518 H       
  46 H46           -5.6908     7.8214     0.4400 H       
  47 H47           -4.8723     9.2415     0.8090 H       
@<TRIPOS>BOND
   1    1    2 am
   2    1   10 1
   3    1   15 1
   4    2    3 1
   5    2   14 2
   6    3    4 2
   7    3   34 1
   8    4    5 1
   9    4   35 1
  10    5    6 ar
  11    5   10 ar
  12    6    7 ar
  13    6   36 1
  14    7    8 ar
  15    8    9 ar
  16    8   13 ar
  17    9   10 ar
  18    9   21 ar
  19   11   12 ar
  20   11   22 1
  21   11   21 ar
  22   12   13 ar
  23   12   37 1
  24   13   38 1
  25   15   16 ar
  26   15   20 ar
  27   16   17 ar
  28   16   30 1
  29   17   18 ar
  30   17   39 1
  31   18   19 ar
  32   18   24 1
  33   19   20 ar
  34   19   40 1
  35   20   41 1
  36   21   42 1
  37   22   23 ar
  38   22   28 ar
  39   23   25 ar
  40   23   43 1
  41   25   26 ar
  42   26   27 ar
  43   26   29 1
  44   27   28 ar
  45   27   44 1
  46   28   45 1
  47   29   46 1
  48   29   47 1
  49   30   31 1
  50   30   32 1
  51   30   33 1

#	End of record

