#	Name: ASD03331643
#	Creating user name:	WinNT
#	Creation time:	15. 06. 2019 20:39

#	Modifying user name:	WinNT
#	Modification time:	15. 06. 2019 20:39

#	Program:	/corina/corina34_cracker 3.40 0067  02.08.2006

@<TRIPOS>MOLECULE
ASD03331643
  55   58    0    0    0
SMALL
NO_CHARGES


@<TRIPOS>ATOM
   1 C1             2.0446     0.2571    -0.4193 C.ar    
   2 C2             1.0423    -0.4420     0.1925 C.ar    
   3 C3             0.2431     0.1648     1.1513 C.ar    
   4 C4             0.4448     1.4816     1.5033 C.ar    
   5 C5             2.2669     1.5922    -0.0776 C.ar    
   6 C6             3.2229     2.6106    -0.5189 C.2     
   7 C7             1.4592     2.2121     0.8935 C.ar    
   8 N8             1.9023     3.5094     1.0222 N.pl3   
   9 C9             2.9533     3.7283     0.1739 C.2     
  10 S10            3.8234     5.2521     0.0137 S.o2    
  11 O11            3.1836     6.1732     0.8864 O.2     
  12 O12            5.2062     4.9353     0.0964 O.2     
  13 N13            3.5619     5.8066    -1.5246 N.am    
  14 C14            2.2096     6.1761    -1.9501 C.3     
  15 C15            2.2883     7.0167    -3.2260 C.3     
  16 C16            0.8973     7.3968    -3.6637 C.ar    
  17 C17           -1.0812     6.9158    -4.9239 C.ar    
  18 C18            0.1938     6.5705    -4.5208 C.ar    
  19 C19            0.3250     8.5683    -3.2029 C.ar    
  20 C20           -0.9498     8.9194    -3.6016 C.ar    
  21 C21           -1.6570     8.0945    -4.4670 C.ar    
  22 N22           -2.9463     8.4468    -4.8727 N.3     
  23 C23            4.3040     2.4365    -1.5542 C.3     
  24 C24           -5.2747     7.7362    -5.1451 C.3     
  25 C25           -3.9064     7.3808    -4.5590 C.3     
  26 C26           -3.3560     9.7235    -4.2739 C.3     
  27 C27           -4.7078    10.1488    -4.8515 C.3     
  28 C28           -5.7485     9.0662    -4.5524 C.3     
  29 H29            2.6654    -0.2229    -1.1613 H       
  30 H30            0.8705    -1.4748    -0.0725 H       
  31 H31           -0.5451    -0.4007     1.6260 H       
  32 H32           -0.1829     1.9451     2.2501 H       
  33 H33            1.5256     4.1697     1.6247 H       
  34 H34            4.3041     5.8867    -2.1440 H       
  35 H35            1.6306     5.2734    -2.1449 H       
  36 H36            1.7265     6.7548    -1.1629 H       
  37 H37            2.8673     7.9195    -3.0313 H       
  38 H38            2.7715     6.4380    -4.0132 H       
  39 H39           -1.6302     6.2698    -5.5930 H       
  40 H40            0.6421     5.6542    -4.8756 H       
  41 H41            0.8754     9.2093    -2.5301 H       
  42 H42           -1.3964     9.8342    -3.2408 H       
  43 H43            3.8884     2.6119    -2.5465 H       
  44 H44            5.1064     3.1497    -1.3652 H       
  45 H45            4.6992     1.4221    -1.4999 H       
  46 H46           -5.1938     7.8287    -6.2281 H       
  47 H47           -5.9908     6.9523    -4.8987 H       
  48 H48           -3.5597     6.4415    -4.9897 H       
  49 H49           -3.9909     7.2750    -3.4775 H       
  50 H50           -3.4431     9.6066    -3.1937 H       
  51 H51           -2.6095    10.4856    -4.4976 H       
  52 H52           -5.0190    11.0886    -4.3953 H       
  53 H53           -4.6180    10.2793    -5.9299 H       
  54 H54           -6.7028     9.3448    -4.9995 H       
  55 H55           -5.8669     8.9628    -3.4738 H       
@<TRIPOS>BOND
   1    1    2 ar
   2    1    5 ar
   3    1   29 1
   4    2    3 ar
   5    2   30 1
   6    3    4 ar
   7    3   31 1
   8    4    7 ar
   9    4   32 1
  10    5    7 ar
  11    5    6 1
  12    6    9 2
  13    6   23 1
  14    7    8 1
  15    8    9 1
  16    8   33 1
  17    9   10 1
  18   10   11 2
  19   10   12 2
  20   10   13 am
  21   13   14 1
  22   13   34 1
  23   14   15 1
  24   14   35 1
  25   14   36 1
  26   15   16 1
  27   15   37 1
  28   15   38 1
  29   16   19 ar
  30   16   18 ar
  31   17   18 ar
  32   17   21 ar
  33   17   39 1
  34   18   40 1
  35   19   20 ar
  36   19   41 1
  37   20   21 ar
  38   20   42 1
  39   21   22 1
  40   22   26 1
  41   22   25 1
  42   23   43 1
  43   23   44 1
  44   23   45 1
  45   24   25 1
  46   24   28 1
  47   24   46 1
  48   24   47 1
  49   25   48 1
  50   25   49 1
  51   26   27 1
  52   26   50 1
  53   26   51 1
  54   27   28 1
  55   27   52 1
  56   27   53 1
  57   28   54 1
  58   28   55 1

#	End of record

