#	Name: ASD08178384
#	Creating user name:	WinNT
#	Creation time:	15. 06. 2019 21:18

#	Modifying user name:	WinNT
#	Modification time:	15. 06. 2019 21:18

#	Program:	/corina/corina34_cracker 3.40 0067  02.08.2006

@<TRIPOS>MOLECULE
ASD08178384
  77   80    0    0    0
SMALL
NO_CHARGES


@<TRIPOS>ATOM
   1 N1            -0.0168     1.3902     0.0097 N.am    
   2 C2            -0.2173     0.0103     0.0231 C.ar    
   3 C3             0.8683    -0.8557    -0.0926 C.ar    
   4 N4            -1.4399    -0.4832     0.1513 N.ar    
   5 N5            -1.6667    -1.7463     0.1686 N.ar    
   6 C6            -0.7002    -2.6368     0.0602 C.ar    
   7 C7             0.6159    -2.2190    -0.0733 C.ar    
   8 C8            -1.0247    -4.1082     0.0874 C.3     
   9 C9            -1.8115    -4.4335     1.3586 C.3     
  10 C10           -2.1410    -5.9273     1.3862 C.3     
  11 C11           -2.9278    -6.2527     2.6574 C.3     
  12 C12           -3.2523    -7.7241     2.6845 C.2     
  13 N13           -2.5213    -8.6581     3.2049 N.2     
  14 N14           -2.9690    -9.8359     3.1257 N.2     
  15 C15           -4.1130   -10.0077     2.5350 C.2     
  16 S16           -4.6995    -8.4828     2.0200 S.3     
  17 N17           -4.7575   -11.2270     2.3553 N.am    
  18 C18           -4.1929   -12.3617     2.8139 C.2     
  19 C19           -4.8913   -13.6828     2.6192 C.3     
  20 O20           -3.1229   -12.3195     3.3832 O.2     
  21 C21           -4.0568   -14.7853     3.2184 C.ar    
  22 C22           -4.2372   -15.1473     4.5404 C.ar    
  23 C23           -3.4726   -16.1583     5.0934 C.ar    
  24 C24           -2.5265   -16.8089     4.3257 C.ar    
  25 C25           -2.3438   -16.4477     2.9985 C.ar    
  26 C26           -3.1159   -15.4372     2.4446 C.ar    
  27 C27           -1.0750     2.2250     0.0167 C.2     
  28 C28           -0.8601     3.7130     0.1198 C.3     
  29 O29           -2.2000     1.7786    -0.0599 O.2     
  30 C30           -2.1935     4.4152     0.1067 C.ar    
  31 C31           -2.8565     4.6619     1.2943 C.ar    
  32 C32           -2.7509     4.8175    -1.0926 C.ar    
  33 C33           -3.9740     5.4616    -1.1047 C.ar    
  34 C34           -4.6398     5.7029     0.0824 C.ar    
  35 C35           -4.0796     5.3059     1.2822 C.ar    
  36 O36           -1.4133   -17.0861     2.2413 O.3     
  37 C37           -0.6582   -18.1199     2.8763 C.3     
  38 C38            0.3314   -18.7176     1.8742 C.3     
  39 C39            1.1398   -19.8244     2.5541 C.3     
  40 S40            2.3132   -20.5331     1.3661 S.o2    
  41 C41            3.1444   -21.7962     2.3682 C.3     
  42 O42            1.5791   -21.1824     0.3371 O.2     
  43 O43            3.2626   -19.5351     1.0171 O.2     
  44 H44            0.8842     1.7494    -0.0006 H       
  45 H45            1.8745    -0.4770    -0.1944 H       
  46 H46            1.4199    -2.9345    -0.1636 H       
  47 H47           -1.6240    -4.3643    -0.7864 H       
  48 H48           -0.0997    -4.6845     0.0751 H       
  49 H49           -1.2123    -4.1774     2.2323 H       
  50 H50           -2.7366    -3.8571     1.3708 H       
  51 H51           -2.7402    -6.1835     0.5124 H       
  52 H52           -1.2159    -6.5037     1.3739 H       
  53 H53           -2.3286    -5.9966     3.5311 H       
  54 H54           -3.8529    -5.6763     2.6696 H       
  55 H55           -5.6133   -11.2607     1.9000 H       
  56 H56           -5.8640   -13.6554     3.1104 H       
  57 H57           -5.0274   -13.8683     1.5537 H       
  58 H58           -4.9762   -14.6395     5.1424 H       
  59 H59           -3.6152   -16.4390     6.1264 H       
  60 H60           -1.9292   -17.5979     4.7582 H       
  61 H61           -2.9756   -15.1542     1.4118 H       
  62 H62           -0.3385     3.9413     1.0493 H       
  63 H63           -0.2620     4.0532    -0.7255 H       
  64 H64           -2.4191     4.3512     2.2316 H       
  65 H65           -2.2307     4.6290    -2.0201 H       
  66 H66           -4.4092     5.7766    -2.0416 H       
  67 H67           -5.5952     6.2064     0.0730 H       
  68 H68           -4.5998     5.4945     2.2097 H       
  69 H69           -0.1117   -17.7032     3.7223 H       
  70 H70           -1.3340   -18.8992     3.2286 H       
  71 H71           -0.2151   -19.1343     1.0282 H       
  72 H72            1.0071   -17.9382     1.5219 H       
  73 H73            1.6864   -19.4078     3.4002 H       
  74 H74            0.4641   -20.6038     2.9064 H       
  75 H75            2.4097   -22.5176     2.7260 H       
  76 H76            3.8908   -22.3085     1.7612 H       
  77 H77            3.6320   -21.3216     3.2197 H       
@<TRIPOS>BOND
   1    1    2 1
   2    1   27 am
   3    1   44 1
   4    2    3 ar
   5    2    4 ar
   6    3    7 ar
   7    3   45 1
   8    4    5 ar
   9    5    6 ar
  10    6    7 ar
  11    6    8 1
  12    7   46 1
  13    8    9 1
  14    8   47 1
  15    8   48 1
  16    9   10 1
  17    9   49 1
  18    9   50 1
  19   10   11 1
  20   10   51 1
  21   10   52 1
  22   11   12 1
  23   11   53 1
  24   11   54 1
  25   12   13 2
  26   12   16 1
  27   13   14 1
  28   14   15 2
  29   15   16 1
  30   15   17 1
  31   17   18 am
  32   17   55 1
  33   18   19 1
  34   18   20 2
  35   19   21 1
  36   19   56 1
  37   19   57 1
  38   21   22 ar
  39   21   26 ar
  40   22   23 ar
  41   22   58 1
  42   23   24 ar
  43   23   59 1
  44   24   25 ar
  45   24   60 1
  46   25   26 ar
  47   25   36 1
  48   26   61 1
  49   27   28 1
  50   27   29 2
  51   28   30 1
  52   28   62 1
  53   28   63 1
  54   30   31 ar
  55   30   32 ar
  56   31   35 ar
  57   31   64 1
  58   32   33 ar
  59   32   65 1
  60   33   34 ar
  61   33   66 1
  62   34   35 ar
  63   34   67 1
  64   35   68 1
  65   36   37 1
  66   37   38 1
  67   37   69 1
  68   37   70 1
  69   38   39 1
  70   38   71 1
  71   38   72 1
  72   39   40 1
  73   39   73 1
  74   39   74 1
  75   40   41 1
  76   40   42 2
  77   40   43 2
  78   41   75 1
  79   41   76 1
  80   41   77 1

#	End of record

