#	Name: ASD01881325
#	Creating user name:	WinNT
#	Creation time:	15. 06. 2019 19:42

#	Modifying user name:	WinNT
#	Modification time:	15. 06. 2019 19:42

#	Program:	/corina/corina34_cracker 3.40 0067  02.08.2006

@<TRIPOS>MOLECULE
ASD01881325
  61   63    0    0    0
SMALL
NO_CHARGES


@<TRIPOS>ATOM
   1 C1            -0.0179     1.4715     0.0101 C.2     
   2 C2             0.0021    -0.0041     0.0020 C.ar    
   3 C3             1.2211    -0.6901    -0.0133 C.ar    
   4 C4             1.2336    -2.0727    -0.0209 C.ar    
   5 C5             0.0454    -2.7783    -0.0134 C.ar    
   6 C6            -1.1691    -2.1051     0.0014 C.ar    
   7 C7            -1.1958    -0.7218     0.0154 C.ar    
   8 O8             1.0258     2.0932     0.0035 O.2     
   9 O9            -1.1938     2.1292     0.0193 O.3     
  10 F10            2.3843    -0.0028    -0.0211 F       
  11 O11           -2.3338    -2.8064     0.0078 O.3     
  12 C12           -2.2328    -4.2318    -0.0013 C.3     
  13 C13           -3.6355    -4.8426     0.0077 C.3     
  14 C14           -3.5274    -6.3687    -0.0020 C.3     
  15 C15           -4.9302    -6.9795     0.0071 C.3     
  16 O16           -4.8292    -8.4049    -0.0020 O.3     
  17 C17           -5.9914    -9.1047     0.0044 C.ar    
  18 C18           -5.9618   -10.4922    -0.0039 C.ar    
  19 C19           -7.1460   -11.2081     0.0031 C.ar    
  20 C20           -8.3735   -10.5209     0.0185 C.ar    
  21 C21           -8.3837    -9.1196     0.0266 C.ar    
  22 C22           -7.2077    -8.4274     0.0250 C.ar    
  23 C23           -4.6415   -11.2184    -0.0209 C.3     
  24 O24           -7.1235   -12.5640    -0.0054 O.3     
  25 C25           -9.6345   -11.2663     0.0255 C.2     
  26 O26           -9.6221   -12.4796     0.0180 O.2     
  27 C27          -10.9472   -10.5263     0.0420 C.3     
  28 C28          -12.0998   -11.5325     0.0465 C.3     
  29 C29          -13.4427   -10.7949     0.1893 C.3     
  30 C30          -14.2627   -11.1238    -1.0753 C.3     
  31 C31          -13.6638   -12.4603    -1.5795 C.3     
  32 C32          -12.1506   -12.2838    -1.2999 C.3     
  33 H33            2.1746    -2.6026    -0.0331 H       
  34 H34            0.0614    -3.8581    -0.0194 H       
  35 H35           -2.1404    -0.1986     0.0317 H       
  36 H36           -1.1562     3.0955     0.0244 H       
  37 H37           -1.7025    -4.5528    -0.8980 H       
  38 H38           -1.6866    -4.5630     0.8819 H       
  39 H39           -4.1658    -4.5216     0.9044 H       
  40 H40           -4.1817    -4.5114    -0.8755 H       
  41 H41           -2.9972    -6.6897    -0.8986 H       
  42 H42           -2.9812    -6.6999     0.8812 H       
  43 H43           -5.4604    -6.6585     0.9037 H       
  44 H44           -5.4764    -6.6483    -0.8762 H       
  45 H45           -9.3232    -8.5870     0.0385 H       
  46 H46           -7.2206    -7.3475     0.0358 H       
  47 H47           -4.3131   -11.3994     1.0026 H       
  48 H48           -4.7570   -12.1704    -0.5391 H       
  49 H49           -3.8992   -10.6108    -0.5385 H       
  50 H50           -7.1085   -12.9626     0.8755 H       
  51 H51          -11.0032    -9.9057     0.9363 H       
  52 H52          -11.0195    -9.8949    -0.8435 H       
  53 H53          -11.9738   -12.2406     0.8655 H       
  54 H54          -13.9688   -11.1457     1.0771 H       
  55 H55          -13.2733    -9.7202     0.2554 H       
  56 H56          -15.3163   -11.2482    -0.8252 H       
  57 H57          -14.1374   -10.3427    -1.8251 H       
  58 H58          -14.0656   -13.3012    -1.0143 H       
  59 H59          -13.8472   -12.5877    -2.6464 H       
  60 H60          -11.6842   -11.6900    -2.0860 H       
  61 H61          -11.6628   -13.2547    -1.2136 H       
@<TRIPOS>BOND
   1    1    2 1
   2    1    8 2
   3    1    9 1
   4    2    3 ar
   5    2    7 ar
   6    3    4 ar
   7    3   10 1
   8    4    5 ar
   9    4   33 1
  10    5    6 ar
  11    5   34 1
  12    6    7 ar
  13    6   11 1
  14    7   35 1
  15    9   36 1
  16   11   12 1
  17   12   13 1
  18   12   37 1
  19   12   38 1
  20   13   14 1
  21   13   39 1
  22   13   40 1
  23   14   15 1
  24   14   41 1
  25   14   42 1
  26   15   16 1
  27   15   43 1
  28   15   44 1
  29   16   17 1
  30   17   18 ar
  31   17   22 ar
  32   18   19 ar
  33   18   23 1
  34   19   20 ar
  35   19   24 1
  36   20   21 ar
  37   20   25 1
  38   21   22 ar
  39   21   45 1
  40   22   46 1
  41   23   47 1
  42   23   48 1
  43   23   49 1
  44   24   50 1
  45   25   26 2
  46   25   27 1
  47   27   28 1
  48   27   51 1
  49   27   52 1
  50   28   29 1
  51   28   32 1
  52   28   53 1
  53   29   30 1
  54   29   54 1
  55   29   55 1
  56   30   31 1
  57   30   56 1
  58   30   57 1
  59   31   32 1
  60   31   58 1
  61   31   59 1
  62   32   60 1
  63   32   61 1

#	End of record

