#	Name: ASD01813973
#	Creating user name:	WinNT
#	Creation time:	15. 06. 2019 19:31

#	Modifying user name:	WinNT
#	Modification time:	15. 06. 2019 19:31

#	Program:	/corina/corina34_cracker 3.40 0067  02.08.2006

@<TRIPOS>MOLECULE
ASD01813973
  50   54    0    0    0
SMALL
NO_CHARGES


@<TRIPOS>ATOM
   1 C1             1.7145     2.5193    -0.4105 C.ar    
   2 C2             1.1807     1.2405    -0.4473 C.ar    
   3 C3             1.9912     0.1337    -0.3114 C.ar    
   4 C4             3.3626     0.2918    -0.1351 C.ar    
   5 C5             3.9046     1.5883    -0.0983 C.ar    
   6 C6             3.0722     2.7017    -0.2367 C.ar    
   7 N7             4.1821    -0.8080     0.0023 N.pl3   
   8 C8             5.5066    -0.7089     0.1748 C.2     
   9 C9             6.1521     0.5097     0.2274 C.2     
  10 C10            5.3581     1.7417     0.0889 C.2     
  11 F11            3.5920     3.9482    -0.2014 F       
  12 O12            5.8808     2.8419     0.1281 O.2     
  13 C13            7.6077     0.5765     0.4190 C.2     
  14 O14            8.2268     1.7729     0.4687 O.3     
  15 O15            8.2534    -0.4472     0.5327 O.2     
  16 C16            3.5785    -2.1422    -0.0417 C.3     
  17 C17            3.5573    -2.6372    -1.4649 C.ar    
  18 C18            4.6283    -3.3579    -1.9608 C.ar    
  19 C19            4.6121    -3.8126    -3.2647 C.ar    
  20 C20            3.5184    -3.5458    -4.0781 C.ar    
  21 C21            2.4442    -2.8220    -3.5769 C.ar    
  22 C22            2.4643    -2.3746    -2.2705 C.ar    
  23 N23            3.4991    -4.0047    -5.4002 N.am    
  24 C24            2.9696    -5.2477    -5.6810 C.ar    
  25 C25            2.9492    -5.7111    -7.0099 C.ar    
  26 C26            3.4933    -4.8571    -8.0674 C.2     
  27 C27            3.9991    -3.6458    -7.7262 C.2     
  28 C28            3.9917    -3.2260    -6.3794 C.2     
  29 C29            2.4550    -6.0518    -4.6693 C.ar    
  30 C30            1.9326    -7.2891    -4.9784 C.ar    
  31 C31            1.9142    -7.7429    -6.2904 C.ar    
  32 C32            2.4144    -6.9707    -7.3001 C.ar    
  33 O33            4.4510    -2.1333    -6.0951 O.2     
  34 H34            1.0667     3.3760    -0.5227 H       
  35 H35            0.1174     1.1098    -0.5837 H       
  36 H36            1.5616    -0.8567    -0.3413 H       
  37 H37            6.0888    -1.6129     0.2764 H       
  38 H38            9.1853     1.7663     0.5963 H       
  39 H39            4.1642    -2.8263     0.5723 H       
  40 H40            2.5591    -2.0925     0.3410 H       
  41 H41            5.4784    -3.5651    -1.3277 H       
  42 H42            5.4491    -4.3749    -3.6516 H       
  43 H43            1.5924    -2.6125    -4.2070 H       
  44 H44            1.6292    -1.8121    -1.8800 H       
  45 H45            3.4922    -5.1847    -9.0965 H       
  46 H46            4.4059    -2.9986    -8.4891 H       
  47 H47            2.4651    -5.7080    -3.6456 H       
  48 H48            1.5338    -7.9124    -4.1917 H       
  49 H49            1.5010    -8.7152    -6.5146 H       
  50 H50            2.3963    -7.3308    -8.3182 H       
@<TRIPOS>BOND
   1    1    2 ar
   2    1    6 ar
   3    1   34 1
   4    2    3 ar
   5    2   35 1
   6    3    4 ar
   7    3   36 1
   8    4    5 ar
   9    4    7 1
  10    5    6 ar
  11    5   10 1
  12    6   11 1
  13    7    8 1
  14    7   16 1
  15    8    9 2
  16    8   37 1
  17    9   10 1
  18    9   13 1
  19   10   12 2
  20   13   14 1
  21   13   15 2
  22   14   38 1
  23   16   17 1
  24   16   39 1
  25   16   40 1
  26   17   18 ar
  27   17   22 ar
  28   18   19 ar
  29   18   41 1
  30   19   20 ar
  31   19   42 1
  32   20   21 ar
  33   20   23 1
  34   21   22 ar
  35   21   43 1
  36   22   44 1
  37   23   24 1
  38   23   28 am
  39   24   25 ar
  40   24   29 ar
  41   25   26 1
  42   25   32 ar
  43   26   27 2
  44   26   45 1
  45   27   28 1
  46   27   46 1
  47   28   33 2
  48   29   30 ar
  49   29   47 1
  50   30   31 ar
  51   30   48 1
  52   31   32 ar
  53   31   49 1
  54   32   50 1

#	End of record

