#	Name: ASD09200043
#	Creating user name:	WinNT
#	Creation time:	15. 06. 2019 21:21

#	Modifying user name:	WinNT
#	Modification time:	15. 06. 2019 21:21

#	Program:	/corina/corina34_cracker 3.40 0067  02.08.2006

@<TRIPOS>MOLECULE
ASD09200043
  48   52    0    0    0
SMALL
NO_CHARGES


@<TRIPOS>ATOM
   1 C1            -1.1935     1.1943    -0.4017 C.ar    
   2 C2            -1.3205    -0.1875    -0.3309 C.ar    
   3 C3            -2.1642    -0.7587     0.6093 C.ar    
   4 C4            -2.8830     0.0416     1.4798 C.ar    
   5 C5            -2.7661     1.4148     1.4202 C.ar    
   6 C6            -1.9157     2.0030     0.4822 C.ar    
   7 O7            -0.6176    -0.9796    -1.1842 O.3     
   8 C8            -0.7967    -2.3915    -1.0550 C.3     
   9 O9            -0.3668     1.7577    -1.3220 O.3     
  10 C10           -1.7881     3.4737     0.4155 C.2     
  11 N11           -0.6988     4.1757     0.6347 N.2     
  12 N12           -0.9469     5.4283     0.4901 N.2     
  13 C13           -2.2108     5.6061     0.1691 C.2     
  14 N14           -2.7833     4.3681     0.1068 N.pl3   
  15 N15           -2.9413     6.7507    -0.0867 N.am    
  16 C16           -4.2514     6.6831    -0.4024 C.2     
  17 C17           -4.8994     5.3608    -0.4722 C.ar    
  18 C18           -4.1258     4.2170    -0.2131 C.ar    
  19 C19           -6.2486     5.2305    -0.7938 C.ar    
  20 C20           -6.8178     3.9752    -0.8493 C.ar    
  21 C21           -6.0554     2.8483    -0.5868 C.ar    
  22 C22           -4.7152     2.9636    -0.2738 C.ar    
  23 O23           -4.8870     7.6960    -0.6253 O.2     
  24 C24           -2.2835     8.0576    -0.0134 C.3     
  25 C25           -1.8709     8.4906    -1.3967 C.ar    
  26 C26           -2.7048     9.2993    -2.1452 C.ar    
  27 C27           -2.3264     9.6965    -3.4144 C.ar    
  28 C28           -1.1142     9.2847    -3.9353 C.ar    
  29 C29           -0.2794     8.4754    -3.1877 C.ar    
  30 C30           -0.6545     8.0830    -1.9153 C.ar    
  31 Cl31           0.3936     7.0671    -0.9756 Cl      
  32 H32           -2.2612    -1.8330     0.6623 H       
  33 H33           -3.5387    -0.4110     2.2089 H       
  34 H34           -3.3294     2.0348     2.1019 H       
  35 H35           -0.1804    -2.9049    -1.7931 H       
  36 H36           -0.5014    -2.7051    -0.0538 H       
  37 H37           -1.8448    -2.6413    -1.2197 H       
  38 H38           -0.7939     1.9523    -2.1675 H       
  39 H39           -6.8454     6.1071    -0.9982 H       
  40 H40           -7.8634     3.8702    -1.0983 H       
  41 H41           -6.5120     1.8706    -0.6329 H       
  42 H42           -4.1289     2.0796    -0.0711 H       
  43 H43           -2.9745     8.7892     0.4053 H       
  44 H44           -1.4015     7.9853     0.6229 H       
  45 H45           -3.6524     9.6207    -1.7389 H       
  46 H46           -2.9785    10.3285    -3.9990 H       
  47 H47           -0.8194     9.5950    -4.9269 H       
  48 H48            0.6674     8.1531    -3.5952 H       
@<TRIPOS>BOND
   1    1    2 ar
   2    1    9 1
   3    1    6 ar
   4    2    3 ar
   5    2    7 1
   6    3    4 ar
   7    3   32 1
   8    4    5 ar
   9    4   33 1
  10    5    6 ar
  11    5   34 1
  12    6   10 1
  13    7    8 1
  14    8   35 1
  15    8   36 1
  16    8   37 1
  17    9   38 1
  18   10   11 2
  19   10   14 1
  20   11   12 1
  21   12   13 2
  22   13   14 1
  23   13   15 1
  24   14   18 1
  25   15   16 am
  26   15   24 1
  27   16   17 1
  28   16   23 2
  29   17   18 ar
  30   17   19 ar
  31   18   22 ar
  32   19   20 ar
  33   19   39 1
  34   20   21 ar
  35   20   40 1
  36   21   22 ar
  37   21   41 1
  38   22   42 1
  39   24   25 1
  40   24   43 1
  41   24   44 1
  42   25   26 ar
  43   25   30 ar
  44   26   27 ar
  45   26   45 1
  46   27   28 ar
  47   27   46 1
  48   28   29 ar
  49   28   47 1
  50   29   30 ar
  51   29   48 1
  52   30   31 1

#	End of record

