#	Name: ASD04882130
#	Creating user name:	WinNT
#	Creation time:	15. 06. 2019 20:54

#	Modifying user name:	WinNT
#	Modification time:	15. 06. 2019 20:54

#	Program:	/corina/corina34_cracker 3.40 0067  02.08.2006

@<TRIPOS>MOLECULE
ASD04882130
  79   83    0    0    0
SMALL
NO_CHARGES


@<TRIPOS>ATOM
   1 C1             0.4108     0.9704     0.4872 C.2     
   2 C2             0.2558    -0.3667     0.7176 C.2     
   3 C3            -0.9454    -1.1569     0.4299 C.2     
   4 O4            -1.9231    -0.6220    -0.0594 O.2     
   5 N5            -0.9669    -2.4757     0.7074 N.am    
   6 C6            -2.1483    -3.2085     0.5351 C.ar    
   7 C7            -2.0893    -4.5478     0.1384 C.ar    
   8 C8            -3.2605    -5.2761    -0.0329 C.ar    
   9 C9            -4.4835    -4.6814     0.1874 C.ar    
  10 C10           -4.5497    -3.3431     0.5837 C.ar    
  11 C11           -3.3727    -2.6100     0.7627 C.ar    
  12 N12           -0.8553    -5.1528    -0.0859 N.3     
  13 C13           -0.1820    -4.5601    -1.2500 C.3     
  14 C14            1.2006    -5.1955    -1.4144 C.3     
  15 N15            1.0528    -6.6484    -1.5784 N.3     
  16 C16            0.3795    -7.2411    -0.4143 C.3     
  17 C17           -1.0031    -6.6057    -0.2499 C.3     
  18 C18            2.2906    -7.2553    -1.8034 C.ar    
  19 C19            2.9877    -7.0005    -2.9778 C.ar    
  20 C20            4.7429    -8.4570    -2.2488 C.ar    
  21 C21            2.8299    -8.1103    -0.8509 C.ar    
  22 C22            4.2113    -7.6017    -3.1968 C.ar    
  23 C23            4.0544    -8.7084    -1.0764 C.ar    
  24 C24            2.4089    -6.0694    -4.0118 C.3     
  25 C25           -5.8595    -2.7062     0.8186 C.2     
  26 N26           -6.9934    -3.4153     0.6511 N.am    
  27 O27           -5.9162    -1.5415     1.1634 O.2     
  28 C28           -8.2941    -2.7829     0.8844 C.3     
  29 O29            1.4016    -0.8332     1.2558 O.3     
  30 C30            2.2791     0.1719     1.3730 C.2     
  31 C31            1.7071     1.3049     0.9093 C.2     
  32 C32           -9.3920    -3.7834     0.6298 C.ar    
  33 C33           -9.8538    -4.5800     1.6608 C.ar    
  34 C34          -10.8609    -5.4977     1.4272 C.ar    
  35 C35          -11.4063    -5.6185     0.1628 C.ar    
  36 C36          -10.9451    -4.8213    -0.8680 C.ar    
  37 C37           -9.9410    -3.9005    -0.6334 C.ar    
  38 C38          -12.5035    -6.6197    -0.0920 C.3     
  39 C39          -13.7046    -6.2980     0.7995 C.3     
  40 C40          -12.9257    -6.5508    -1.5610 C.3     
  41 C41          -11.9940    -8.0268     0.2267 C.3     
  42 H42           -0.3205     1.6398     0.0588 H       
  43 H43           -0.1643    -2.9173     1.0263 H       
  44 H44           -3.2119    -6.3104    -0.3398 H       
  45 H45           -5.3919    -5.2500     0.0535 H       
  46 H46           -3.4206    -1.5768     1.0736 H       
  47 H47           -0.7754    -4.7436    -2.1457 H       
  48 H48           -0.0730    -3.4861    -1.0992 H       
  49 H49            1.6903    -4.7782    -2.2943 H       
  50 H50            1.8034    -4.9888    -0.5301 H       
  51 H51            0.2706    -8.3151    -0.5651 H       
  52 H52            0.9729    -7.0576     0.4814 H       
  53 H53           -1.4928    -7.0230     0.6300 H       
  54 H54           -1.6058    -6.8124    -1.1342 H       
  55 H55            5.6999    -8.9262    -2.4228 H       
  56 H56            2.2926    -8.3070     0.0650 H       
  57 H57            4.7537    -7.4040    -4.1096 H       
  58 H58            4.4722    -9.3768    -0.3382 H       
  59 H59            2.7991    -5.0639    -3.8543 H       
  60 H60            2.6861    -6.4149    -5.0077 H       
  61 H61            1.3227    -6.0559    -3.9211 H       
  62 H62           -6.9482    -4.3444     0.3760 H       
  63 H63           -8.3500    -2.4369     1.9165 H       
  64 H64           -8.4119    -1.9347     0.2100 H       
  65 H65            3.2791     0.0903     1.7728 H       
  66 H66            2.1618     2.2837     0.8705 H       
  67 H67           -9.4277    -4.4856     2.6486 H       
  68 H68          -11.2212    -6.1206     2.2326 H       
  69 H69          -11.3710    -4.9159    -1.8559 H       
  70 H70           -9.5807    -3.2776    -1.4387 H       
  71 H71          -14.0675    -5.2956     0.5724 H       
  72 H72          -14.4981    -7.0222     0.6152 H       
  73 H73          -13.4038    -6.3471     1.8460 H       
  74 H74          -12.0700    -6.7800    -2.1961 H       
  75 H75          -13.7192    -7.2749    -1.7453 H       
  76 H76          -13.2886    -5.5484    -1.7881 H       
  77 H77          -11.6933    -8.0758     1.2733 H       
  78 H78          -12.7876    -8.7509     0.0424 H       
  79 H79          -11.1384    -8.2559    -0.4084 H       
@<TRIPOS>BOND
   1    1    2 2
   2    1   31 1
   3    1   42 1
   4    2    3 1
   5    2   29 1
   6    3    4 2
   7    3    5 am
   8    5    6 1
   9    5   43 1
  10    6    7 ar
  11    6   11 ar
  12    7    8 ar
  13    7   12 1
  14    8    9 ar
  15    8   44 1
  16    9   10 ar
  17    9   45 1
  18   10   11 ar
  19   10   25 1
  20   11   46 1
  21   12   13 1
  22   12   17 1
  23   13   14 1
  24   13   47 1
  25   13   48 1
  26   14   15 1
  27   14   49 1
  28   14   50 1
  29   15   16 1
  30   15   18 1
  31   16   17 1
  32   16   51 1
  33   16   52 1
  34   17   53 1
  35   17   54 1
  36   18   19 ar
  37   18   21 ar
  38   19   22 ar
  39   19   24 1
  40   20   22 ar
  41   20   23 ar
  42   20   55 1
  43   21   23 ar
  44   21   56 1
  45   22   57 1
  46   23   58 1
  47   24   59 1
  48   24   60 1
  49   24   61 1
  50   25   26 am
  51   25   27 2
  52   26   28 1
  53   26   62 1
  54   28   32 1
  55   28   63 1
  56   28   64 1
  57   29   30 1
  58   30   31 2
  59   30   65 1
  60   31   66 1
  61   32   33 ar
  62   32   37 ar
  63   33   34 ar
  64   33   67 1
  65   34   35 ar
  66   34   68 1
  67   35   36 ar
  68   35   38 1
  69   36   37 ar
  70   36   69 1
  71   37   70 1
  72   38   39 1
  73   38   40 1
  74   38   41 1
  75   39   71 1
  76   39   72 1
  77   39   73 1
  78   40   74 1
  79   40   75 1
  80   40   76 1
  81   41   77 1
  82   41   78 1
  83   41   79 1

#	End of record

