#	Name: ASD01940076
#	Creating user name:	WinNT
#	Creation time:	15. 06. 2019 20:11

#	Modifying user name:	WinNT
#	Modification time:	15. 06. 2019 20:11

#	Program:	/corina/corina34_cracker 3.40 0067  02.08.2006

@<TRIPOS>MOLECULE
ASD01940076
  32   33    0    0    0
SMALL
NO_CHARGES


@<TRIPOS>ATOM
   1 Br1            2.7288    -4.1211    -2.3456 Br      
   2 F2             1.8566     1.4513     2.1385 F       
   3 C3             1.0192     2.0887     1.2913 C.ar    
   4 C4             1.3453     2.2024    -0.0536 C.ar    
   5 C5             0.4779     2.8605    -0.9239 C.ar    
   6 C6            -0.7064     3.3986    -0.4431 C.ar    
   7 C7            -1.0258     3.2827     0.8973 C.ar    
   8 C8            -0.1686     2.6245     1.7627 C.ar    
   9 N9             2.5437     1.6573    -0.5347 N.pl3   
  10 N10            0.8022     2.9787    -2.2821 N.am    
  11 C11            2.5870     0.3234    -0.9529 C.ar    
  12 C12            1.4325    -0.4473    -0.9407 C.ar    
  13 C13            1.4780    -1.7649    -1.3544 C.ar    
  14 C14            2.6723    -2.3174    -1.7806 C.ar    
  15 C15            3.8261    -1.5531    -1.7941 C.ar    
  16 C16            3.7863    -0.2325    -1.3874 C.ar    
  17 F17            4.9123     0.5138    -1.4008 F       
  18 F18           -0.4884     2.5089     3.0702 F       
  19 S19            0.3880     4.3480    -3.1162 S.o2    
  20 O20            0.9483     4.1546    -4.4077 O.2     
  21 O21           -1.0174     4.4564    -2.9361 O.2     
  22 C22            1.2467     5.6866    -2.2437 C.3     
  23 F23            2.6258     5.4537    -2.2741 F       
  24 F24            0.9658     6.9062    -2.8689 F       
  25 F25            0.8106     5.7324    -0.9151 F       
  26 H26           -1.3796     3.9088    -1.1160 H       
  27 H27           -1.9483     3.7032     1.2694 H       
  28 H28            3.3430     2.2052    -0.5775 H       
  29 H29            1.2692     2.2584    -2.7337 H       
  30 H30            0.4993    -0.0174    -0.6078 H       
  31 H31            0.5798    -2.3644    -1.3445 H       
  32 H32            4.7572    -1.9873    -2.1271 H       
@<TRIPOS>BOND
   1    1   14 1
   2    2    3 1
   3    3    4 ar
   4    3    8 ar
   5    4    5 ar
   6    4    9 1
   7    5    6 ar
   8    5   10 1
   9    6    7 ar
  10    6   26 1
  11    7    8 ar
  12    7   27 1
  13    8   18 1
  14    9   11 1
  15    9   28 1
  16   10   19 am
  17   10   29 1
  18   11   12 ar
  19   11   16 ar
  20   12   13 ar
  21   12   30 1
  22   13   14 ar
  23   13   31 1
  24   14   15 ar
  25   15   16 ar
  26   15   32 1
  27   16   17 1
  28   19   20 2
  29   19   21 2
  30   19   22 1
  31   22   23 1
  32   22   24 1
  33   22   25 1

#	End of record

