#	Name: ASD01150477
#	Creating user name:	WinNT
#	Creation time:	15. 06. 2019 19:04

#	Modifying user name:	WinNT
#	Modification time:	15. 06. 2019 19:04

#	Program:	/corina/corina34_cracker 3.40 0067  02.08.2006

@<TRIPOS>MOLECULE
ASD01150477
  50   53    0    0    0
SMALL
NO_CHARGES


@<TRIPOS>ATOM
   1 C1             1.9144     1.4015     0.9689 C.ar    
   2 C2             1.9596     0.0212     0.9431 C.ar    
   3 C3             0.4927     0.0046    -0.9572 C.ar    
   4 C4             0.4447     1.3911    -0.9340 C.ar    
   5 C5             1.1564     2.0910     0.0300 C.ar    
   6 N6             1.1107     3.4892     0.0569 N.am    
   7 C7            -0.0778     4.1147    -0.0076 C.2     
   8 N8            -0.1587     5.4581     0.0163 N.am    
   9 C9             0.9638     6.2012     0.1062 C.2     
  10 C10            2.2670     5.5230     0.1772 C.2     
  11 N11            2.3025     4.2167     0.1565 N.2     
  12 O12            0.8990     7.4163     0.1280 O.2     
  13 C13           -1.4667     6.1140    -0.0560 C.3     
  14 O14           -1.0967     3.4557    -0.0894 O.2     
  15 C15           -2.0090     6.3080     1.3366 C.ar    
  16 C16           -1.7226     7.4757     2.0398 C.ar    
  17 N17           -2.1762     7.6793     3.2530 N.ar    
  18 C18           -2.9375     6.7715     3.8715 C.ar    
  19 C19           -3.2674     5.5610     3.2127 C.ar    
  20 C20           -2.7865     5.3411     1.9084 C.ar    
  21 O21            3.4153     6.2431     0.2679 O.3     
  22 C22            4.6388     5.5076     0.3324 C.3     
  23 C23            1.2519    -0.6785    -0.0156 C.ar    
  24 N24           -0.2232    -0.7049    -1.9279 N.am    
  25 C25            0.2667    -1.8622    -2.4148 C.2     
  26 C26           -0.5544    -2.6831    -3.3754 C.3     
  27 O27            1.3685    -2.2429    -2.0798 O.2     
  28 C28           -3.4208     6.9949     5.1729 C.ar    
  29 C29           -4.1934     6.0520     5.7773 C.ar    
  30 C30           -4.5163     4.8621     5.1275 C.ar    
  31 C31           -4.0673     4.6103     3.8672 C.ar    
  32 H32            2.4650     1.9453     1.7222 H       
  33 H33            2.5496    -0.5123     1.6737 H       
  34 H34           -0.1451     1.9245    -1.6648 H       
  35 H35           -1.3607     7.0834    -0.5429 H       
  36 H36           -2.1537     5.4922    -0.6300 H       
  37 H37           -1.1103     8.2333     1.5735 H       
  38 H38           -3.0192     4.4300     1.3774 H       
  39 H39            4.6284     4.8612     1.2100 H       
  40 H40            4.7448     4.8992    -0.5658 H       
  41 H41            5.4766     6.2014     0.4022 H       
  42 H42            1.2893    -1.7577    -0.0330 H       
  43 H43           -1.0720    -0.3637    -2.2503 H       
  44 H44           -0.7695    -2.0928    -4.2661 H       
  45 H45            0.0022    -3.5768    -3.6575 H       
  46 H46           -1.4900    -2.9736    -2.8974 H       
  47 H47           -3.1793     7.9113     5.6909 H       
  48 H48           -4.5622     6.2283     6.7769 H       
  49 H49           -5.1308     4.1301     5.6304 H       
  50 H50           -4.3245     3.6847     3.3738 H       
@<TRIPOS>BOND
   1    1    2 ar
   2    1    5 ar
   3    1   32 1
   4    2   23 ar
   5    2   33 1
   6    3    4 ar
   7    3   24 1
   8    3   23 ar
   9    4    5 ar
  10    4   34 1
  11    5    6 1
  12    6    7 am
  13    6   11 1
  14    7    8 am
  15    7   14 2
  16    8    9 am
  17    8   13 1
  18    9   10 1
  19    9   12 2
  20   10   11 2
  21   10   21 1
  22   13   15 1
  23   13   35 1
  24   13   36 1
  25   15   16 ar
  26   15   20 ar
  27   16   17 ar
  28   16   37 1
  29   17   18 ar
  30   18   19 ar
  31   18   28 ar
  32   19   20 ar
  33   19   31 ar
  34   20   38 1
  35   21   22 1
  36   22   39 1
  37   22   40 1
  38   22   41 1
  39   23   42 1
  40   24   25 am
  41   24   43 1
  42   25   26 1
  43   25   27 2
  44   26   44 1
  45   26   45 1
  46   26   46 1
  47   28   29 ar
  48   28   47 1
  49   29   30 ar
  50   29   48 1
  51   30   31 ar
  52   30   49 1
  53   31   50 1

#	End of record

