#	Name: ASD01885789
#	Creating user name:	WinNT
#	Creation time:	15. 06. 2019 19:50

#	Modifying user name:	WinNT
#	Modification time:	15. 06. 2019 19:50

#	Program:	/corina/corina34_cracker 3.40 0067  02.08.2006

@<TRIPOS>MOLECULE
ASD01885789
  61   63    0    0    0
SMALL
NO_CHARGES


@<TRIPOS>ATOM
   1 C1            -0.0160     1.3294     0.0094 C.ar    
   2 C2            -1.2520     2.0240     0.0189 C.ar    
   3 C3            -2.4596     1.2809     0.0205 C.ar    
   4 C4            -2.3700    -0.1047     0.0125 C.ar    
   5 C5            -1.1108    -0.7138     0.0033 C.ar    
   6 N6             0.0021    -0.0041     0.0020 N.ar    
   7 C7             1.1364     3.4285     0.0097 C.ar    
   8 C8            -0.0805     4.1065     0.0258 C.ar    
   9 C9            -1.2606     3.4246     0.0271 C.ar    
  10 C10           -3.7749     1.9611     0.0308 C.2     
  11 C11           -1.0240    -2.1941    -0.0047 C.2     
  12 C12            2.4227     4.2136     0.0097 C.3     
  13 N13            2.8503     4.4530     1.3945 N.3     
  14 C14            1.1821     2.0685     0.0019 C.ar    
  15 N15            0.1806    -2.7985    -0.0130 N.am    
  16 O16           -2.0389    -2.8621    -0.0037 O.2     
  17 C17            3.2099     3.1926     2.0603 C.3     
  18 C18            3.7050     3.4934     3.4774 C.3     
  19 O19            2.6929     4.2115     4.1882 O.3     
  20 C20            2.3189     5.4448     3.5680 C.3     
  21 C21            1.8097     5.1637     2.1518 C.3     
  22 C22            4.0050     2.1803     4.2033 C.3     
  23 F23            4.9915     1.4762     3.5047 F       
  24 F24            4.4573     2.4561     5.4981 F       
  25 F25            2.8403     1.4082     4.2707 F       
  26 C26           -4.1757     2.9887     0.9094 C.2     
  27 N27           -5.3995     3.3279     0.6043 N.2     
  28 N28           -5.8265     2.5392    -0.4706 N.pl3   
  29 C29           -4.8207     1.7119    -0.8135 C.2     
  30 C30           -7.1405     2.6056    -1.1149 C.3     
  31 C31            1.4834     6.4859     1.4544 C.3     
  32 H32           -3.2660    -0.7077     0.0137 H       
  33 H33           -0.0889     5.1864     0.0378 H       
  34 H34           -2.1976     3.9616     0.0341 H       
  35 H35            3.1929     3.6491    -0.5159 H       
  36 H36            2.2657     5.1683    -0.4923 H       
  37 H37            2.1338     1.5582    -0.0097 H       
  38 H38            0.9908    -2.2651    -0.0139 H       
  39 H39            0.2373    -3.7668    -0.0182 H       
  40 H40            2.3347     2.5448     2.1104 H       
  41 H41            3.9995     2.6956     1.4967 H       
  42 H42            4.6117     4.0961     3.4259 H       
  43 H43            1.5301     5.9206     4.1506 H       
  44 H44            3.1848     6.1049     3.5191 H       
  45 H45            0.9121     4.5475     2.2033 H       
  46 H46           -3.5757     3.4197     1.6972 H       
  47 H47           -4.8393     0.9798    -1.6073 H       
  48 H48           -7.1080     3.3249    -1.9332 H       
  49 H49           -7.4038     1.6226    -1.5054 H       
  50 H50           -7.8875     2.9188    -0.3854 H       
  51 H51            2.3822     7.1004     1.4018 H       
  52 H52            1.1210     6.2851     0.4463 H       
  53 H53            0.7147     7.0141     2.0185 H       
  54 C54           10.9934    14.0075    11.4033 C.3     
  55 C55           11.0141    12.4776    11.3949 C.3     
  56 H56           12.0160    14.3848    11.3956 H       
  57 H57           10.4662    14.3686    10.5202 H       
  58 H58           10.4832    14.3590    12.3001 H       
  59 H59           11.5413    12.1166    12.2779 H       
  60 H60            9.9915    12.1004    11.4026 H       
  61 H61           11.5243    12.1261    10.4981 H       
@<TRIPOS>BOND
   1    1    6 ar
   2    1   14 ar
   3    1    2 ar
   4    2    3 ar
   5    2    9 ar
   6    3   10 1
   7    3    4 ar
   8    4    5 ar
   9    4   32 1
  10    5   11 1
  11    5    6 ar
  12    7   12 1
  13    7    8 ar
  14    7   14 ar
  15    8    9 ar
  16    8   33 1
  17    9   34 1
  18   10   26 1
  19   10   29 2
  20   11   15 am
  21   11   16 2
  22   12   13 1
  23   12   35 1
  24   12   36 1
  25   13   17 1
  26   13   21 1
  27   14   37 1
  28   15   38 1
  29   15   39 1
  30   17   18 1
  31   17   40 1
  32   17   41 1
  33   18   22 1
  34   18   19 1
  35   18   42 1
  36   19   20 1
  37   20   21 1
  38   20   43 1
  39   20   44 1
  40   21   31 1
  41   21   45 1
  42   22   23 1
  43   22   24 1
  44   22   25 1
  45   26   27 2
  46   26   46 1
  47   27   28 1
  48   28   29 1
  49   28   30 1
  50   29   47 1
  51   30   48 1
  52   30   49 1
  53   30   50 1
  54   31   51 1
  55   31   52 1
  56   31   53 1
  57   54   55 1
  58   54   56 1
  59   54   57 1
  60   54   58 1
  61   55   59 1
  62   55   60 1
  63   55   61 1

#	End of record

