#	Name: ASD01884177
#	Creating user name:	WinNT
#	Creation time:	15. 06. 2019 19:47

#	Modifying user name:	WinNT
#	Modification time:	15. 06. 2019 19:47

#	Program:	/corina/corina34_cracker 3.40 0067  02.08.2006

@<TRIPOS>MOLECULE
ASD01884177
  52   54    0    0    0
SMALL
NO_CHARGES


@<TRIPOS>ATOM
   1 C1            -0.0384     1.4795    -0.0265 C.ar    
   2 C2            -0.0399    -0.0029    -0.0737 C.ar    
   3 C3            -1.2424    -0.7004     0.0165 C.ar    
   4 C4            -1.2401    -2.0785    -0.0283 C.ar    
   5 C5            -0.0179    -2.7584    -0.1648 C.ar    
   6 C6             1.1409    -1.9803    -0.2484 C.ar    
   7 N7             1.1039    -0.6629    -0.2074 N.ar    
   8 N8             0.1982    -4.1215    -0.2296 N.am    
   9 C9             1.4520    -4.5650    -0.3619 C.2     
  10 S10            2.4818    -3.1247    -0.4117 S.3     
  11 C11           -0.9234    -5.0610    -0.1544 C.3     
  12 C12           -1.4492    -5.3414    -1.5636 C.3     
  13 C13           -0.3314    -5.9486    -2.4136 C.3     
  14 C14           -2.6206    -6.3226    -1.4850 C.3     
  15 O15            1.8135    -5.7249    -0.4333 O.2     
  16 C16           -1.9216    -4.0333    -2.2013 C.3     
  17 C17            0.8529     2.1517     0.8077 C.ar    
  18 C18            0.8502     3.5314     0.8473 C.ar    
  19 C19           -0.0348     4.2467     0.0611 C.ar    
  20 C20           -0.9218     3.5846    -0.7690 C.ar    
  21 C21           -0.9244     2.2057    -0.8206 C.ar    
  22 C22            1.8174     1.3738     1.6653 C.3     
  23 C23           -1.8830     4.3710    -1.6226 C.3     
  24 C24           -1.2567     5.7186    -1.9867 C.3     
  25 O25           -2.1674     3.6397    -2.8170 O.3     
  26 C26           -3.1807     4.6047    -0.8465 C.3     
  27 H27           -2.1735    -0.1634     0.1215 H       
  28 H28           -2.1667    -2.6290     0.0412 H       
  29 H29           -0.5869    -5.9930     0.2999 H       
  30 H30           -1.7198    -4.6284     0.4512 H       
  31 H31            0.0051    -6.8806    -1.9593 H       
  32 H32           -0.7060    -6.1484    -3.4175 H       
  33 H33            0.5031    -5.2496    -2.4696 H       
  34 H34           -3.4169    -5.8900    -0.8794 H       
  35 H35           -2.9952    -6.5223    -2.4889 H       
  36 H36           -2.2840    -7.2545    -1.0307 H       
  37 H37           -1.0871    -3.3343    -2.2572 H       
  38 H38           -2.2962    -4.2330    -3.2052 H       
  39 H39           -2.7180    -3.6007    -1.5957 H       
  40 H40            1.5401     4.0535     1.4936 H       
  41 H41           -0.0337     5.3261     0.0955 H       
  42 H42           -1.6173     1.6899    -1.4689 H       
  43 H43            2.7041     1.1260     1.0818 H       
  44 H44            2.1058     1.9767     2.5263 H       
  45 H45            1.3399     0.4559     2.0082 H       
  46 H46           -0.3323     5.5521    -2.5396 H       
  47 H47           -1.9520     6.2874    -2.6041 H       
  48 H48           -1.0398     6.2764    -1.0757 H       
  49 H49           -2.5670     2.7730    -2.6617 H       
  50 H50           -2.9638     5.1625     0.0645 H       
  51 H51           -3.8759     5.1735    -1.4640 H       
  52 H52           -3.6268     3.6446    -0.5872 H       
@<TRIPOS>BOND
   1    1    2 1
   2    1   17 ar
   3    1   21 ar
   4    2    3 ar
   5    2    7 ar
   6    3    4 ar
   7    3   27 1
   8    4    5 ar
   9    4   28 1
  10    5    6 ar
  11    5    8 1
  12    6    7 ar
  13    6   10 1
  14    8    9 am
  15    8   11 1
  16    9   10 1
  17    9   15 2
  18   11   12 1
  19   11   29 1
  20   11   30 1
  21   12   13 1
  22   12   14 1
  23   12   16 1
  24   13   31 1
  25   13   32 1
  26   13   33 1
  27   14   34 1
  28   14   35 1
  29   14   36 1
  30   16   37 1
  31   16   38 1
  32   16   39 1
  33   17   18 ar
  34   17   22 1
  35   18   19 ar
  36   18   40 1
  37   19   20 ar
  38   19   41 1
  39   20   21 ar
  40   20   23 1
  41   21   42 1
  42   22   43 1
  43   22   44 1
  44   22   45 1
  45   23   24 1
  46   23   25 1
  47   23   26 1
  48   24   46 1
  49   24   47 1
  50   24   48 1
  51   25   49 1
  52   26   50 1
  53   26   51 1
  54   26   52 1

#	End of record

