#	Name: ASD00960064
#	Creating user name:	WinNT
#	Creation time:	15. 06. 2019 18:53

#	Modifying user name:	WinNT
#	Modification time:	15. 06. 2019 18:53

#	Program:	/corina/corina34_cracker 3.40 0067  02.08.2006

@<TRIPOS>MOLECULE
ASD00960064
  42   45    0    0    0
SMALL
NO_CHARGES


@<TRIPOS>ATOM
   1 C1            -0.5631     1.6884    -0.8829 C.3     
   2 C2            -0.5480     0.1495    -1.0202 C.3     
   3 C3            -0.7202    -0.3583     0.4286 C.3     
   4 O4            -1.3733     0.7258     1.1244 O.3     
   5 C5            -0.7427     1.9284     0.6326 C.3     
   6 C6            -1.6438     3.1405     0.8768 C.3     
   7 C7            -1.5839    -1.5930     0.4525 C.2     
   8 C8            -1.1444    -2.8587     0.2556 C.2     
   9 N9            -2.9185    -1.6092     0.6801 N.pl3   
  10 C10           -3.3613    -2.9138     0.6256 C.2     
  11 C11           -2.2545    -3.7217     0.3578 C.2     
  12 N12           -3.8564    -0.5998     0.9418 N.2     
  13 C13           -5.1118    -0.9064     1.1264 C.2     
  14 N14           -5.5509    -2.1619     1.0761 N.2     
  15 C15           -4.7311    -3.1729     0.8350 C.2     
  16 O16           -1.7621     3.3705     2.2822 O.3     
  17 N17           -5.2125    -4.4666     0.7877 N.pl3   
  18 C18           -2.2479    -5.1884     0.2110 C.2     
  19 N19           -3.0650    -5.8782    -0.5358 N.2     
  20 C20           -2.9082    -7.1834    -0.5423 C.2     
  21 C21           -1.9213    -7.6558     0.2238 C.2     
  22 S22           -1.1304    -6.2911     1.0101 S.3     
  23 C23           -1.7110    -0.3221    -1.8954 C.3     
  24 O24            0.6737     2.2436    -1.3347 O.3     
  25 *25            0.5570     3.5413    -1.8736 Du      
  26 O26            0.6974    -0.2924    -1.5639 O.3     
  27 *27            0.9669     0.2026    -2.8563 Du      
  28 H28           -1.3977     2.1134    -1.4405 H       
  29 H29            0.2519    -0.5654     0.8761 H       
  30 H30            0.2259     2.0719     1.1114 H       
  31 H31           -1.2084     4.0188     0.4003 H       
  32 H32           -2.6308     2.9502     0.4554 H       
  33 H33           -0.1252    -3.1543     0.0552 H       
  34 H34           -5.8181    -0.1144     1.3270 H       
  35 H35           -2.3207     4.1259     2.5115 H       
  36 H36           -6.1684    -4.6296     0.8122 H       
  37 H37           -4.5947    -5.2122     0.7299 H       
  38 H38           -3.5388    -7.8337    -1.1305 H       
  39 H39           -1.6515    -8.6952     0.3383 H       
  40 H40           -1.6092     0.1020    -2.8943 H       
  41 H41           -1.6994    -1.4101    -1.9596 H       
  42 H42           -2.6529     0.0059    -1.4556 H       
@<TRIPOS>BOND
   1    1    2 1
   2    1   24 1
   3    1    5 1
   4    1   28 1
   5    2   23 1
   6    2   26 1
   7    2    3 1
   8    3    4 1
   9    3    7 1
  10    3   29 1
  11    4    5 1
  12    5    6 1
  13    5   30 1
  14    6   16 1
  15    6   31 1
  16    6   32 1
  17    7    8 2
  18    7    9 1
  19    8   11 1
  20    8   33 1
  21    9   10 1
  22    9   12 1
  23   10   11 2
  24   10   15 1
  25   11   18 1
  26   12   13 2
  27   13   14 1
  28   13   34 1
  29   14   15 2
  30   15   17 1
  31   16   35 1
  32   17   36 1
  33   17   37 1
  34   18   19 2
  35   18   22 1
  36   19   20 1
  37   20   21 2
  38   20   38 1
  39   21   22 1
  40   21   39 1
  41   23   40 1
  42   23   41 1
  43   23   42 1
  44   24   25 1
  45   26   27 1

#	End of record

