#	Name: ASD01410370
#	Creating user name:	WinNT
#	Creation time:	15. 06. 2019 19:17

#	Modifying user name:	WinNT
#	Modification time:	15. 06. 2019 19:17

#	Program:	/corina/corina34_cracker 3.40 0067  02.08.2006

@<TRIPOS>MOLECULE
ASD01410370
  58   61    0    0    0
SMALL
NO_CHARGES


@<TRIPOS>ATOM
   1 N1            -0.0166     1.3704     0.0096 N.pl3   
   2 C2             0.0021    -0.0041     0.0020 C.2     
   3 C3             1.2889    -0.4360    -0.0126 C.2     
   4 C4             2.1284     0.7036    -0.0145 C.ar    
   5 C5             3.5208     0.8712    -0.0272 C.ar    
   6 C6             4.0564     2.1222    -0.0256 C.ar    
   7 C7             3.2238     3.2516    -0.0111 C.ar    
   8 C8             1.8377     3.1028     0.0017 C.ar    
   9 C9             1.2838     1.8324    -0.0004 C.ar    
  10 C10            3.8172     4.6009    -0.0090 C.2     
  11 O11            3.0985     5.5807     0.0035 O.2     
  12 O12            5.1568     4.7479    -0.0210 O.3     
  13 C13           -1.1923    -0.8754     0.0087 C.ar    
  14 C14           -1.7479    -1.2950     1.2198 C.ar    
  15 C15           -2.8637    -2.1083     1.2183 C.ar    
  16 C16           -3.4304    -2.5076     0.0210 C.ar    
  17 C17           -2.8843    -2.0956    -1.1815 C.ar    
  18 C18           -1.7731    -1.2777    -1.1945 C.ar    
  19 C19            1.7428    -1.8730    -0.0239 C.3     
  20 C20            2.5720    -2.1360    -1.2825 C.3     
  21 C21            3.0329    -3.5949    -1.2940 C.3     
  22 C22            3.8864    -3.8699    -0.0543 C.3     
  23 C23            3.0572    -3.6068     1.2044 C.3     
  24 C24            2.5963    -2.1479     1.2158 C.3     
  25 C25           -1.2191     2.2071     0.0200 C.3     
  26 C26           -1.6244     2.4863     1.4444 C.2     
  27 N27           -2.7109     3.2418     1.7001 N.am    
  28 C28           -3.1049     3.5132     3.0848 C.3     
  29 C29           -3.4977     3.7916     0.5934 C.3     
  30 O30           -0.9730     2.0312     2.3606 O.2     
  31 Cl31          -1.0370    -0.7956     2.7228 Cl      
  32 H32            4.1684     0.0069    -0.0380 H       
  33 H33            5.1292     2.2465    -0.0351 H       
  34 H34            1.1987     3.9733     0.0135 H       
  35 H35            5.4992     5.6522    -0.0190 H       
  36 H36           -3.2947    -2.4338     2.1535 H       
  37 H37           -4.3029    -3.1441     0.0251 H       
  38 H38           -3.3314    -2.4116    -2.1125 H       
  39 H39           -1.3509    -0.9535    -2.1342 H       
  40 H40            0.8724    -2.5290    -0.0185 H       
  41 H41            1.9639    -1.9401    -2.1657 H       
  42 H42            3.4424    -1.4799    -1.2878 H       
  43 H43            2.1624    -4.2510    -1.2886 H       
  44 H44            3.6236    -3.7823    -2.1907 H       
  45 H45            4.2147    -4.9092    -0.0625 H       
  46 H46            4.7568    -3.2138    -0.0596 H       
  47 H47            2.1867    -4.2629     1.2097 H       
  48 H48            3.6652    -3.8027     2.0875 H       
  49 H49            3.4667    -1.4919     1.2105 H       
  50 H50            2.0056    -1.9606     2.1125 H       
  51 H51           -1.0115     3.1480    -0.4897 H       
  52 H52           -2.0281     1.6869    -0.4927 H       
  53 H53           -2.2958     4.0334     3.5975 H       
  54 H54           -3.9996     4.1357     3.0925 H       
  55 H55           -3.3125     2.5724     3.5945 H       
  56 H56           -4.2799     3.0844     0.3172 H       
  57 H57           -3.9518     4.7329     0.9029 H       
  58 H58           -2.8470     3.9665    -0.2634 H       
@<TRIPOS>BOND
   1    1    2 1
   2    1    9 1
   3    1   25 1
   4    2    3 2
   5    2   13 1
   6    3    4 1
   7    3   19 1
   8    4    5 ar
   9    4    9 ar
  10    5    6 ar
  11    5   32 1
  12    6    7 ar
  13    6   33 1
  14    7    8 ar
  15    7   10 1
  16    8    9 ar
  17    8   34 1
  18   10   11 2
  19   10   12 1
  20   12   35 1
  21   13   14 ar
  22   13   18 ar
  23   14   15 ar
  24   14   31 1
  25   15   16 ar
  26   15   36 1
  27   16   17 ar
  28   16   37 1
  29   17   18 ar
  30   17   38 1
  31   18   39 1
  32   19   20 1
  33   19   24 1
  34   19   40 1
  35   20   21 1
  36   20   41 1
  37   20   42 1
  38   21   22 1
  39   21   43 1
  40   21   44 1
  41   22   23 1
  42   22   45 1
  43   22   46 1
  44   23   24 1
  45   23   47 1
  46   23   48 1
  47   24   49 1
  48   24   50 1
  49   25   26 1
  50   25   51 1
  51   25   52 1
  52   26   27 am
  53   26   30 2
  54   27   28 1
  55   27   29 1
  56   28   53 1
  57   28   54 1
  58   28   55 1
  59   29   56 1
  60   29   57 1
  61   29   58 1

#	End of record

