#	Name: ASD01890020
#	Creating user name:	WinNT
#	Creation time:	15. 06. 2019 19:50

#	Modifying user name:	WinNT
#	Modification time:	15. 06. 2019 19:50

#	Program:	/corina/corina34_cracker 3.40 0067  02.08.2006

@<TRIPOS>MOLECULE
ASD01890020
  34   36    0    0    0
SMALL
NO_CHARGES


@<TRIPOS>ATOM
   1 C1            -0.0184     1.5028     0.0103 C.2     
   2 C2             0.0021    -0.0041     0.0020 C.3     
   3 C3             1.4513    -0.4944    -0.0145 C.3     
   4 C4             1.4750    -2.0197     0.1029 C.3     
   5 O5             1.0197     2.1211     0.0037 O.2     
   6 O6            -1.1898     2.1580     0.0194 O.3     
   7 C7             2.1073    -0.0797    -1.3063 C.2     
   8 C8             3.1836     0.7019    -1.4058 C.2     
   9 C9             3.6086     0.9471    -2.7002 C.2     
  10 C10            2.8774     0.3647    -3.6517 C.2     
  11 S11            1.5752    -0.5583    -2.9129 S.3     
  12 C12            2.9017    -2.4931     0.2102 C.2     
  13 N13            3.8455    -2.2142    -0.6408 N.2     
  14 C14            5.0054    -2.7981    -0.2437 C.ar    
  15 C15            4.7296    -3.4865     0.9500 C.ar    
  16 N16            3.3915    -3.2695     1.2141 N.pl3   
  17 C17            6.2989    -2.8264    -0.7709 C.ar    
  18 C18            7.2881    -3.5265    -0.1174 C.ar    
  19 C19            7.0104    -4.2047     1.0613 C.ar    
  20 C20            5.7394    -4.1863     1.5952 C.ar    
  21 I21            9.2274    -3.5690    -0.9088 I       
  22 H22           -0.4983    -0.3791     0.8948 H       
  23 H23           -0.5153    -0.3696    -0.8850 H       
  24 H24            1.9924    -0.0570     0.8246 H       
  25 H25            0.9232    -2.3243     0.9921 H       
  26 H26            1.0118    -2.4593    -0.7805 H       
  27 H27           -1.1523     3.1243     0.0245 H       
  28 H28            3.6852     1.1126    -0.5421 H       
  29 H29            4.4670     1.5636    -2.9228 H       
  30 H30            3.0594     0.4447    -4.7133 H       
  31 H31            2.8928    -3.6097     1.9733 H       
  32 H32            6.5221    -2.3012    -1.6878 H       
  33 H33            7.7953    -4.7504     1.5638 H       
  34 H34            5.5300    -4.7161     2.5127 H       
@<TRIPOS>BOND
   1    1    2 1
   2    1    5 2
   3    1    6 1
   4    2    3 1
   5    2   22 1
   6    2   23 1
   7    3    4 1
   8    3    7 1
   9    3   24 1
  10    4   12 1
  11    4   25 1
  12    4   26 1
  13    6   27 1
  14    7    8 2
  15    7   11 1
  16    8    9 1
  17    8   28 1
  18    9   10 2
  19    9   29 1
  20   10   11 1
  21   10   30 1
  22   12   13 2
  23   12   16 1
  24   13   14 1
  25   14   15 ar
  26   14   17 ar
  27   15   16 1
  28   15   20 ar
  29   16   31 1
  30   17   18 ar
  31   17   32 1
  32   18   19 ar
  33   18   21 1
  34   19   20 ar
  35   19   33 1
  36   20   34 1

#	End of record

