#	Name: ASD01900157
#	Creating user name:	WinNT
#	Creation time:	15. 06. 2019 19:51

#	Modifying user name:	WinNT
#	Modification time:	15. 06. 2019 19:51

#	Program:	/corina/corina34_cracker 3.40 0067  02.08.2006

@<TRIPOS>MOLECULE
ASD01900157
  39   41    0    0    0
SMALL
NO_CHARGES


@<TRIPOS>ATOM
   1 C1             0.0378     1.3062     0.1281 C.ar    
   2 C2            -1.1246     1.6632    -0.5360 C.ar    
   3 C3            -1.1564     2.8424    -1.2643 C.ar    
   4 C4            -0.0149     3.6273    -1.3016 C.ar    
   5 C5             1.1187     3.2063    -0.6096 C.ar    
   6 N6             1.1073     2.0698     0.0760 N.ar    
   7 C7             2.3469     4.0338    -0.6394 C.2     
   8 N8             3.4467     3.6318     0.0280 N.am    
   9 O9             2.3629     5.0753    -1.2657 O.2     
  10 C10            4.6364     4.3614    -0.0797 C.ar    
  11 C11            4.5951     5.7459    -0.1805 C.ar    
  12 C12            5.7694     6.4657    -0.2863 C.ar    
  13 C13            6.9916     5.8040    -0.2919 C.ar    
  14 C14            7.0318     4.4195    -0.1911 C.ar    
  15 C15            5.8585     3.7009    -0.0801 C.ar    
  16 N16            8.1824     6.5332    -0.3996 N.am    
  17 C17            9.3126     5.9218    -0.8060 C.2     
  18 O18            9.2785     4.7635    -1.1744 O.2     
  19 Cl19           5.7186     8.1964    -0.4128 Cl      
  20 C20           10.5920     6.6583    -0.8038 C.ar    
  21 C21           11.7662     6.0266    -1.2249 C.ar    
  22 C22           12.9588     6.7207    -1.2204 C.ar    
  23 C23           12.9933     8.0409    -0.7996 C.ar    
  24 C24           11.8315     8.6716    -0.3807 C.ar    
  25 C25           10.6333     7.9906    -0.3866 C.ar    
  26 F26           14.1636     8.7159    -0.7972 F       
  27 Cl27          11.7238     4.3730    -1.7514 Cl      
  28 H28            0.0645     0.3904     0.7001 H       
  29 H29           -1.9973     1.0288    -0.4871 H       
  30 H30           -2.0503     3.1423    -1.7909 H       
  31 H31           -0.0041     4.5520    -1.8594 H       
  32 H32            3.4138     2.8369     0.5829 H       
  33 H33            3.6452     6.2596    -0.1764 H       
  34 H34            7.9815     3.9052    -0.1959 H       
  35 H35            5.8902     2.6242    -0.0014 H       
  36 H36            8.1936     7.4784    -0.1818 H       
  37 H37           13.8668     6.2344    -1.5449 H       
  38 H38           11.8649     9.7002    -0.0533 H       
  39 H39            9.7286     8.4849    -0.0647 H       
@<TRIPOS>BOND
   1    1    2 ar
   2    1    6 ar
   3    1   28 1
   4    2    3 ar
   5    2   29 1
   6    3    4 ar
   7    3   30 1
   8    4    5 ar
   9    4   31 1
  10    5    6 ar
  11    5    7 1
  12    7    8 am
  13    7    9 2
  14    8   10 1
  15    8   32 1
  16   10   11 ar
  17   10   15 ar
  18   11   12 ar
  19   11   33 1
  20   12   13 ar
  21   12   19 1
  22   13   14 ar
  23   13   16 1
  24   14   15 ar
  25   14   34 1
  26   15   35 1
  27   16   17 am
  28   16   36 1
  29   17   18 2
  30   17   20 1
  31   20   21 ar
  32   20   25 ar
  33   21   22 ar
  34   21   27 1
  35   22   23 ar
  36   22   37 1
  37   23   24 ar
  38   23   26 1
  39   24   25 ar
  40   24   38 1
  41   25   39 1

#	End of record

