#	Name: ASD03331062
#	Creating user name:	WinNT
#	Creation time:	15. 06. 2019 20:38

#	Modifying user name:	WinNT
#	Modification time:	15. 06. 2019 20:38

#	Program:	/corina/corina34_cracker 3.40 0067  02.08.2006

@<TRIPOS>MOLECULE
ASD03331062
  46   49    0    0    0
SMALL
NO_CHARGES


@<TRIPOS>ATOM
   1 C1            -0.0126     1.2111    -0.0701 C.2     
   2 O2             0.0038    -0.0049    -0.0532 O.2     
   3 N3             3.3812     2.4705     0.0545 N.pl3   
   4 C4             2.5039     1.4320     0.0201 C.2     
   5 C5             2.8723    -0.0287     0.0276 C.3     
   6 N6             3.8686    -0.2692     1.0832 N.3     
   7 C7             5.2305    -0.0793     0.5802 C.3     
   8 C8             5.2741     1.0222    -0.4750 C.3     
   9 C9             4.8392     2.3524     0.1459 C.3     
  10 C10            2.6524     3.6230     0.0006 C.2     
  11 N11            1.3783     3.3110    -0.0468 N.2     
  12 C12            1.2525     1.9656    -0.0334 C.2     
  13 C13            3.2057     4.9943    -0.0034 C.ar    
  14 C14            2.7436     5.9342    -0.9286 C.ar    
  15 C15            3.2637     7.2143    -0.9275 C.ar    
  16 C16            4.2415     7.5662    -0.0120 C.ar    
  17 C17            4.7042     6.6364     0.9087 C.ar    
  18 C18            4.1868     5.3561     0.9204 C.ar    
  19 F19            5.6585     6.9862     1.7987 F       
  20 F20            4.7470     8.8191    -0.0154 F       
  21 F21            1.7904     5.5918    -1.8228 F       
  22 C22            3.7047    -1.6073     1.6668 C.3     
  23 N23           -1.1878     1.8684    -0.1280 N.am    
  24 C24           -2.6090     1.4941    -0.1825 C.3     
  25 C25           -2.8743     2.8191    -0.9104 C.3     
  26 C26           -1.6136     3.2758    -0.1580 C.3     
  27 O27           -2.7218     2.7489    -2.3295 O.3     
  28 H28            1.9829    -0.6278     0.2228 H       
  29 H29            3.2929    -0.3034    -0.9397 H       
  30 H30            5.8837     0.1928     1.4092 H       
  31 H31            5.5826    -1.0119     0.1392 H       
  32 H32            6.2900     1.1163    -0.8587 H       
  33 H33            4.6009     0.7669    -1.2933 H       
  34 H34            5.3061     3.1764    -0.3937 H       
  35 H35            5.1423     2.3825     1.1925 H       
  36 H36            2.9074     7.9416    -1.6420 H       
  37 H37            4.5444     4.6347     1.6402 H       
  38 H38            3.8305    -2.3607     0.8892 H       
  39 H39            4.4536    -1.7589     2.4441 H       
  40 H40            2.7084    -1.6952     2.1000 H       
  41 H41           -2.8030     0.6149    -0.7968 H       
  42 H42           -3.0804     1.4358     0.7986 H       
  43 H43           -3.7872     3.3260    -0.5974 H       
  44 H44           -1.8226     3.6872     0.8295 H       
  45 H45           -0.9596     3.9146    -0.7515 H       
  46 H46           -2.8896     3.5852    -2.7850 H       
@<TRIPOS>BOND
   1    1    2 2
   2    1   12 1
   3    1   23 am
   4    3    4 1
   5    3    9 1
   6    3   10 1
   7    4    5 1
   8    4   12 2
   9    5    6 1
  10    5   28 1
  11    5   29 1
  12    6    7 1
  13    6   22 1
  14    7    8 1
  15    7   30 1
  16    7   31 1
  17    8    9 1
  18    8   32 1
  19    8   33 1
  20    9   34 1
  21    9   35 1
  22   10   11 2
  23   10   13 1
  24   11   12 1
  25   13   14 ar
  26   13   18 ar
  27   14   15 ar
  28   14   21 1
  29   15   16 ar
  30   15   36 1
  31   16   17 ar
  32   16   20 1
  33   17   18 ar
  34   17   19 1
  35   18   37 1
  36   22   38 1
  37   22   39 1
  38   22   40 1
  39   23   24 1
  40   23   26 1
  41   24   25 1
  42   24   41 1
  43   24   42 1
  44   25   26 1
  45   25   27 1
  46   25   43 1
  47   26   44 1
  48   26   45 1
  49   27   46 1

#	End of record

