#	Name: ASD05430249
#	Creating user name:	WinNT
#	Creation time:	15. 06. 2019 21:00

#	Modifying user name:	WinNT
#	Modification time:	15. 06. 2019 21:00

#	Program:	/corina/corina34_cracker 3.40 0067  02.08.2006

@<TRIPOS>MOLECULE
ASD05430249
  65   70    0    0    0
SMALL
NO_CHARGES


@<TRIPOS>ATOM
   1 C1            -0.0328     2.7383    -0.8807 C.ar    
   2 C2            -0.1858     1.5607    -1.6118 C.ar    
   3 C3             0.9312     0.8657    -2.0573 C.ar    
   4 C4             2.1959     1.3365    -1.7790 C.ar    
   5 C5             2.3571     2.5169    -1.0463 C.ar    
   6 C6             1.2327     3.2165    -0.5978 C.ar    
   7 C7             4.4335     0.6808    -0.2812 C.3     
   8 C8             4.7028     2.1579    -0.4734 C.2     
   9 C9             3.7075     3.0212    -0.7475 C.2     
  10 C10            4.9836     0.2165     1.0558 C.3     
  11 S11            6.7651     0.4904     1.1894 S.o2    
  12 N12            7.0158     1.9590     0.4808 N.am    
  13 C13            6.1018     2.6133    -0.3473 C.2     
  14 N14            6.6707     3.6116    -0.9426 N.2     
  15 N15           -1.4698     1.0771    -1.8973 N.pl3   
  16 C16           -1.9412     0.6924    -3.1258 C.2     
  17 C17           -3.2163     0.2972    -2.9481 C.2     
  18 N18           -3.5201     0.4347    -1.6490 N.2     
  19 C19           -2.4804     0.8954    -1.0081 C.2     
  20 C20           -4.1420    -0.2109    -4.0232 C.3     
  21 C21            8.1864     2.8348     0.5757 C.3     
  22 O22            8.0392     3.6984    -0.5712 O.3     
  23 C23            8.1519     3.6342     1.8527 C.ar    
  24 C24           -0.8974     4.6172     0.2924 C.3     
  25 O25           -1.1284     3.4190    -0.4511 O.3     
  26 C26            9.4793     2.0224     0.4789 C.3     
  27 C27            9.0653     4.6519     2.0554 C.ar    
  28 C28            9.0348     5.3854     3.2263 C.ar    
  29 C29            7.1709     4.0850     3.9899 C.ar    
  30 C30            7.2032     3.3529     2.8182 C.ar    
  31 O31            7.1382     0.6884     2.5462 O.2     
  32 O32            7.4729    -0.4226     0.3619 O.2     
  33 C33            8.0888     5.1008     4.1964 C.ar    
  34 F34            8.0581     5.8172     5.3415 F       
  35 C35            4.2507     0.9215     2.2173 C.3     
  36 O36            3.0405     0.1470     2.3704 O.3     
  37 C37            3.3973    -1.2343     2.1899 C.3     
  38 C38            4.6531    -1.2700     1.2950 C.3     
  39 H39            0.8082    -0.0460    -2.6229 H       
  40 H40            3.0627     0.7939    -2.1264 H       
  41 H41            1.3528     4.1285    -0.0320 H       
  42 H42            3.3585     0.5029    -0.3108 H       
  43 H43            4.9123     0.1191    -1.0833 H       
  44 H44            3.8994     4.0840    -0.7484 H       
  45 H45           -1.3949     0.7041    -4.0574 H       
  46 H46           -2.4340     1.1045     0.0504 H       
  47 H47           -4.0431    -1.2932    -4.1061 H       
  48 H48           -5.1708     0.0413    -3.7659 H       
  49 H49           -3.8818     0.2517    -4.9752 H       
  50 H50           -1.8528     5.0603     0.5736 H       
  51 H51           -0.3271     4.3829     1.1913 H       
  52 H52           -0.3361     5.3226    -0.3204 H       
  53 H53            9.5083     1.4980    -0.4763 H       
  54 H54           10.3358     2.6925     0.5517 H       
  55 H55            9.5148     1.2977     1.2924 H       
  56 H56            9.8031     4.8737     1.2986 H       
  57 H57            9.7489     6.1800     3.3847 H       
  58 H58            6.4297     3.8651     4.7440 H       
  59 H59            6.4874     2.5605     2.6569 H       
  60 H60            4.8486     0.8836     3.1279 H       
  61 H61            4.0159     1.9527     1.9535 H       
  62 H62            3.6171    -1.6896     3.1555 H       
  63 H63            2.5804    -1.7676     1.7036 H       
  64 H64            4.4356    -1.7697     0.3511 H       
  65 H65            5.4756    -1.7660     1.8105 H       
@<TRIPOS>BOND
   1    1    2 ar
   2    1    6 ar
   3    1   25 1
   4    2    3 ar
   5    2   15 1
   6    3    4 ar
   7    3   39 1
   8    4    5 ar
   9    4   40 1
  10    5    6 ar
  11    5    9 1
  12    6   41 1
  13    7    8 1
  14    7   10 1
  15    7   42 1
  16    7   43 1
  17    8    9 2
  18    8   13 1
  19    9   44 1
  20   10   11 1
  21   10   35 1
  22   10   38 1
  23   11   12 am
  24   11   31 2
  25   11   32 2
  26   12   13 1
  27   12   21 1
  28   13   14 2
  29   14   22 1
  30   15   16 1
  31   15   19 1
  32   16   17 2
  33   16   45 1
  34   17   18 1
  35   17   20 1
  36   18   19 2
  37   19   46 1
  38   20   47 1
  39   20   48 1
  40   20   49 1
  41   21   22 1
  42   21   23 1
  43   21   26 1
  44   23   27 ar
  45   23   30 ar
  46   24   25 1
  47   24   50 1
  48   24   51 1
  49   24   52 1
  50   26   53 1
  51   26   54 1
  52   26   55 1
  53   27   28 ar
  54   27   56 1
  55   28   33 ar
  56   28   57 1
  57   29   30 ar
  58   29   33 ar
  59   29   58 1
  60   30   59 1
  61   33   34 1
  62   35   36 1
  63   35   60 1
  64   35   61 1
  65   36   37 1
  66   37   38 1
  67   37   62 1
  68   37   63 1
  69   38   64 1
  70   38   65 1

#	End of record

