#	Name: ASD01940460
#	Creating user name:	WinNT
#	Creation time:	15. 06. 2019 20:12

#	Modifying user name:	WinNT
#	Modification time:	15. 06. 2019 20:12

#	Program:	/corina/corina34_cracker 3.40 0067  02.08.2006

@<TRIPOS>MOLECULE
ASD01940460
  61   64    0    0    0
SMALL
NO_CHARGES


@<TRIPOS>ATOM
   1 N1             1.1121     2.8099    -1.9602 N.am    
   2 N2             1.3320     1.7688    -2.8699 N.2     
   3 C3             2.1894     0.9250    -2.3728 C.2     
   4 C4             2.5790     1.3809    -1.0911 C.ar    
   5 C5             3.4605     0.8843    -0.1143 C.ar    
   6 C6             3.6274     1.5940     1.0809 C.ar    
   7 C7             2.9181     2.7881     1.2947 C.ar    
   8 C8             2.0659     3.2676     0.3497 C.ar    
   9 C9             1.8814     2.5787    -0.8525 C.ar    
  10 C10            4.5447     1.0896     2.1128 C.2     
  11 O11            5.0826     0.0085     1.9721 O.2     
  12 O12            4.7895     1.8258     3.2153 O.3     
  13 S13            0.1011     4.1015    -2.1882 S.o2    
  14 O14            0.5760     5.1375    -1.3395 O.2     
  15 O15           -0.0448     4.2537    -3.5935 O.2     
  16 C16           -3.9688     2.9140    -0.6017 C.ar    
  17 C17           -1.4831     3.6393    -1.5707 C.ar    
  18 C18           -3.0500     3.5186     0.2356 C.ar    
  19 C19           -3.6447     2.6720    -1.9236 C.ar    
  20 C20           -1.8072     3.8813    -0.2489 C.ar    
  21 C21           -2.4019     3.0346    -2.4081 C.ar    
  22 C22           -5.3214     2.5130    -0.0720 C.3     
  23 N23            4.1548    -0.2928    -0.3318 N.pl3   
  24 C24            3.5379    -1.5240    -0.0870 C.ar    
  25 C25            4.2718    -2.7025    -0.1799 C.ar    
  26 C26            3.6581    -3.9171     0.0634 C.ar    
  27 C27            2.3168    -3.9606     0.3988 C.ar    
  28 C28            1.5856    -2.7910     0.4913 C.ar    
  29 C29            2.1935    -1.5728     0.2550 C.ar    
  30 Si30           1.4913    -5.6039     0.7268 Si      
  31 C31            1.6378    -6.0222     2.5363 C.3     
  32 C32           -0.3086    -5.4994     0.2574 C.3     
  33 C33            2.3213    -6.9290    -0.2861 C.3     
  34 F34            5.5817    -2.6598    -0.5079 F       
  35 C35            5.6125     1.2172     4.2451 C.3     
  36 H36            2.5437     0.0270    -2.8571 H       
  37 H37            3.0509     3.3303     2.2192 H       
  38 H38            1.5281     4.1869     0.5293 H       
  39 H39           -3.3034     3.7081     1.2683 H       
  40 H40           -4.3624     2.1993    -2.5777 H       
  41 H41           -1.0895     4.3540     0.4053 H       
  42 H42           -2.1488     2.8459    -3.4409 H       
  43 H43           -6.0213     3.3388    -0.2003 H       
  44 H44           -5.6825     1.6424    -0.6194 H       
  45 H45           -5.2389     2.2679     0.9869 H       
  46 H46            5.0692    -0.2641    -0.6542 H       
  47 H47            4.2262    -4.8327    -0.0087 H       
  48 H48            0.5384    -2.8293     0.7527 H       
  49 H49            1.6219    -0.6597     0.3321 H       
  50 H50            1.1522    -5.2469     3.1290 H       
  51 H51            1.1561    -6.9810     2.7278 H       
  52 H52            2.6909    -6.0833     2.8110 H       
  53 H53           -0.3943    -5.2546    -0.8013 H       
  54 H54           -0.7902    -6.4582     0.4488 H       
  55 H55           -0.7942    -4.7241     0.8500 H       
  56 H56            3.3744    -6.9901    -0.0114 H       
  57 H57            1.8396    -7.8878    -0.0946 H       
  58 H58            2.2356    -6.6842    -1.3448 H       
  59 H59            5.1768     0.2630     4.5416 H       
  60 H60            6.6176     1.0527     3.8568 H       
  61 H61            5.6608     1.8789     5.1099 H       
@<TRIPOS>BOND
   1    1    2 1
   2    1    9 1
   3    1   13 am
   4    2    3 2
   5    3    4 1
   6    3   36 1
   7    4    5 ar
   8    4    9 ar
   9    5    6 ar
  10    5   23 1
  11    6    7 ar
  12    6   10 1
  13    7    8 ar
  14    7   37 1
  15    8    9 ar
  16    8   38 1
  17   10   11 2
  18   10   12 1
  19   12   35 1
  20   13   14 2
  21   13   15 2
  22   13   17 1
  23   16   18 ar
  24   16   19 ar
  25   16   22 1
  26   17   20 ar
  27   17   21 ar
  28   18   20 ar
  29   18   39 1
  30   19   21 ar
  31   19   40 1
  32   20   41 1
  33   21   42 1
  34   22   43 1
  35   22   44 1
  36   22   45 1
  37   23   24 1
  38   23   46 1
  39   24   25 ar
  40   24   29 ar
  41   25   26 ar
  42   25   34 1
  43   26   27 ar
  44   26   47 1
  45   27   28 ar
  46   27   30 1
  47   28   29 ar
  48   28   48 1
  49   29   49 1
  50   30   31 1
  51   30   32 1
  52   30   33 1
  53   31   50 1
  54   31   51 1
  55   31   52 1
  56   32   53 1
  57   32   54 1
  58   32   55 1
  59   33   56 1
  60   33   57 1
  61   33   58 1
  62   35   59 1
  63   35   60 1
  64   35   61 1

#	End of record

