#	Name: ASD00170734
#	Creating user name:	WinNT
#	Creation time:	15. 06. 2019 18:32

#	Modifying user name:	WinNT
#	Modification time:	15. 06. 2019 18:32

#	Program:	/corina/corina34_cracker 3.40 0067  02.08.2006

@<TRIPOS>MOLECULE
ASD00170734
  85   91    0    0    0
SMALL
NO_CHARGES


@<TRIPOS>ATOM
   1 C1             2.2458     4.5248    -5.8448 C.3     
   2 C2             1.2740     5.5079    -5.1552 C.3     
   3 C3            -0.1212     5.0665    -5.6511 C.3     
   4 C4             0.1727     3.8690    -6.5817 C.3     
   5 O5             1.4465     3.3570    -6.1331 O.3     
   6 O6            -0.9372     4.6576    -4.5516 O.3     
   7 O7             1.3622     5.3851    -3.7342 O.3     
   8 C8             3.3959     4.1638    -4.9026 C.3     
   9 O9             4.3423     3.3485    -5.5966 O.3     
  10 N10           -0.8665     2.8461    -6.4404 N.pl3   
  11 C11           -2.0696     2.8147    -7.0990 C.ar    
  12 C12           -2.7283     1.6587    -6.6474 C.ar    
  13 N13           -1.9088     1.0558    -5.7532 N.2     
  14 C14           -0.8129     1.7479    -5.6347 C.2     
  15 N15           -2.6702     3.5925    -7.9940 N.ar    
  16 C16           -3.8655     3.2876    -8.4532 C.ar    
  17 N17           -4.5237     2.2129    -8.0585 N.ar    
  18 C18           -4.0030     1.3755    -7.1675 C.ar    
  19 N19           -4.7005     0.2511    -6.7600 N.pl3   
  20 C20           -5.9148    -0.0797    -7.3732 C.ar    
  21 C21           -6.1101     0.1945    -8.7205 C.ar    
  22 C22           -7.3080    -0.1326    -9.3247 C.ar    
  23 C23           -8.3161    -0.7346    -8.5862 C.ar    
  24 C24           -8.1218    -1.0089    -7.2404 C.ar    
  25 C25           -6.9225    -0.6876    -6.6360 C.ar    
  26 O26           -9.4958    -1.0556    -9.1817 O.3     
  27 N27          -15.0713    -3.5393    -8.3164 N.3     
  28 C28          -16.3613    -3.6127    -9.0172 C.3     
  29 C29          -17.2774    -4.6028    -8.2908 C.3     
  30 C30          -17.2781    -4.2508    -6.8111 C.2     
  31 C31          -16.3511    -3.4598    -6.2577 C.2     
  32 C32          -15.2086    -2.8339    -7.0336 C.3     
  33 C33          -18.2573    -4.7170    -5.8481 C.2     
  34 C34          -18.0293    -4.2506    -4.5774 C.2     
  35 S35          -16.6461    -3.2580    -4.5403 S.3     
  36 N36          -18.8137    -4.5451    -3.4806 N.pl3   
  37 C37          -19.3748    -5.5944    -6.1958 C.2     
  38 C38          -19.1831    -7.0605    -6.2230 C.ar    
  39 O39          -20.4630    -5.1176    -6.4629 O.2     
  40 C40          -20.2137    -7.8937    -6.6609 C.ar    
  41 C41          -20.0287    -9.2614    -6.6840 C.ar    
  42 C42          -18.8225    -9.8068    -6.2733 C.ar    
  43 C43          -17.7971    -8.9841    -5.8375 C.ar    
  44 C44          -17.9685    -7.6160    -5.8161 C.ar    
  45 Cl45         -18.5964   -11.5277    -6.3047 Cl      
  46 Cl46         -21.3091   -10.3000    -7.2277 Cl      
  47 C47          -10.4897    -1.6732    -8.3615 C.3     
  48 C48          -11.7376    -1.9581    -9.1996 C.3     
  49 C49          -12.8017    -2.6194    -8.3215 C.3     
  50 C50          -14.0496    -2.9043    -9.1596 C.3     
  51 H51            2.6334     4.9585    -6.7667 H       
  52 H52            1.4830     6.5319    -5.4647 H       
  53 H53           -0.6019     5.8723    -6.2058 H       
  54 H54            0.2409     4.2013    -7.6176 H       
  55 H55           -1.1032     5.3561    -3.9038 H       
  56 H56            2.2359     5.5920    -3.3750 H       
  57 H57            3.8845     5.0757    -4.5595 H       
  58 H58            3.0047     3.6164    -4.0449 H       
  59 H59            5.1002     3.0812    -5.0589 H       
  60 H60            0.0135     1.4938    -4.9875 H       
  61 H61           -4.3254     3.9411    -9.1797 H       
  62 H62           -4.3479    -0.3074    -6.0497 H       
  63 H63           -5.3256     0.6639    -9.2955 H       
  64 H64           -7.4601     0.0807   -10.3725 H       
  65 H65           -8.9074    -1.4773    -6.6660 H       
  66 H66           -6.7712    -0.9016    -5.5882 H       
  67 H67          -16.8264    -2.6270    -9.0274 H       
  68 H68          -16.2004    -3.9500   -10.0411 H       
  69 H69          -18.2897    -4.5264    -8.6875 H       
  70 H70          -16.9039    -5.6177    -8.4272 H       
  71 H71          -14.2843    -2.9278    -6.4635 H       
  72 H72          -15.4237    -1.7810    -7.2161 H       
  73 H73          -19.5447    -5.1774    -3.5629 H       
  74 H74          -18.6341    -4.1198    -2.6276 H       
  75 H75          -21.1539    -7.4693    -6.9807 H       
  76 H76          -16.8595    -9.4147    -5.5183 H       
  77 H77          -17.1679    -6.9759    -5.4759 H       
  78 H78          -10.0998    -2.6089    -7.9607 H       
  79 H79          -10.7486    -1.0057    -7.5396 H       
  80 H80          -12.1274    -1.0225    -9.6005 H       
  81 H81          -11.4786    -2.6256   -10.0215 H       
  82 H82          -12.4118    -3.5551    -7.9206 H       
  83 H83          -13.0606    -1.9519    -7.4996 H       
  84 H84          -13.7906    -3.5718    -9.9815 H       
  85 H85          -14.4394    -1.9687    -9.5604 H       
@<TRIPOS>BOND
   1    1    2 1
   2    1    8 1
   3    1    5 1
   4    1   51 1
   5    2    3 1
   6    2    7 1
   7    2   52 1
   8    3    4 1
   9    3    6 1
  10    3   53 1
  11    4    5 1
  12    4   10 1
  13    4   54 1
  14    6   55 1
  15    7   56 1
  16    8    9 1
  17    8   57 1
  18    8   58 1
  19    9   59 1
  20   10   11 1
  21   10   14 1
  22   11   12 ar
  23   11   15 ar
  24   12   13 1
  25   12   18 ar
  26   13   14 2
  27   14   60 1
  28   15   16 ar
  29   16   17 ar
  30   16   61 1
  31   17   18 ar
  32   18   19 1
  33   19   20 1
  34   19   62 1
  35   20   21 ar
  36   20   25 ar
  37   21   22 ar
  38   21   63 1
  39   22   23 ar
  40   22   64 1
  41   23   24 ar
  42   23   26 1
  43   24   25 ar
  44   24   65 1
  45   25   66 1
  46   26   47 1
  47   27   28 1
  48   27   32 1
  49   27   50 1
  50   28   29 1
  51   28   67 1
  52   28   68 1
  53   29   30 1
  54   29   69 1
  55   29   70 1
  56   30   31 2
  57   30   33 1
  58   31   32 1
  59   31   35 1
  60   32   71 1
  61   32   72 1
  62   33   34 2
  63   33   37 1
  64   34   35 1
  65   34   36 1
  66   36   73 1
  67   36   74 1
  68   37   38 1
  69   37   39 2
  70   38   40 ar
  71   38   44 ar
  72   40   41 ar
  73   40   75 1
  74   41   42 ar
  75   41   46 1
  76   42   43 ar
  77   42   45 1
  78   43   44 ar
  79   43   76 1
  80   44   77 1
  81   47   48 1
  82   47   78 1
  83   47   79 1
  84   48   49 1
  85   48   80 1
  86   48   81 1
  87   49   50 1
  88   49   82 1
  89   49   83 1
  90   50   84 1
  91   50   85 1

#	End of record

