#	Name: ASD01816377
#	Creating user name:	WinNT
#	Creation time:	15. 06. 2019 19:35

#	Modifying user name:	WinNT
#	Modification time:	15. 06. 2019 19:35

#	Program:	/corina/corina34_cracker 3.40 0067  02.08.2006

@<TRIPOS>MOLECULE
ASD01816377
  63   68    0    0    0
SMALL
NO_CHARGES


@<TRIPOS>ATOM
   1 C1            -0.0167     1.3813     0.0096 C.ar    
   2 C2             0.0021    -0.0041     0.0020 C.ar    
   3 C3             1.1984    -0.6909    -0.0131 C.ar    
   4 C4             2.4015     0.0059    -0.0208 C.ar    
   5 C5             2.3790     1.4106    -0.0130 C.ar    
   6 C6             1.1663     2.0916     0.0022 C.ar    
   7 N7             3.6053    -0.6772    -0.0354 N.pl3   
   8 C8             4.7970    -0.0586    -0.0430 C.2     
   9 C9             4.9000     1.3103    -0.0371 C.2     
  10 C10            3.6670     2.1302    -0.0215 C.2     
  11 C11            5.9971     2.2729    -0.0417 C.2     
  12 N12            5.4245     3.4960    -0.0302 N.am    
  13 N13            4.0323     3.3799    -0.0182 N.2     
  14 O14            7.1914     2.0229    -0.0531 O.2     
  15 C15            3.5779    -2.1419    -0.0425 C.3     
  16 C16            3.5553    -2.6370    -1.4657 C.ar    
  17 C17            4.7430    -2.8861    -2.1285 C.ar    
  18 C18            4.7254    -3.3395    -3.4331 C.ar    
  19 C19            3.5137    -3.5456    -4.0786 C.ar    
  20 C20            2.3228    -3.2951    -3.4103 C.ar    
  21 C21            2.3467    -2.8468    -2.1041 C.ar    
  22 N22            3.4926    -4.0053    -5.4028 N.pl3   
  23 C23            2.3877    -4.2463    -6.1441 C.2     
  24 C24            2.7941    -4.6753    -7.3615 C.2     
  25 C25            4.1931    -4.6976    -7.3654 C.2     
  26 N26            4.6127    -4.2906    -6.1944 N.2     
  27 C27            6.1259     4.7074    -0.0291 C.ar    
  28 C28            7.0632     4.9697    -1.0197 C.ar    
  29 C29            7.7533     6.1662    -1.0160 C.ar    
  30 C30            7.5118     7.1023    -0.0275 C.ar    
  31 C31            6.5793     6.8439     0.9608 C.ar    
  32 C32            5.8819     5.6522     0.9596 C.ar    
  33 C33            4.8657     5.3717     2.0366 C.3     
  34 C34            5.5517     5.3966     3.4040 C.3     
  35 C35            3.7712     6.4400     1.9957 C.3     
  36 C36            4.5486     4.9899     4.4853 C.3     
  37 H37           -0.9602     1.9068     0.0169 H       
  38 H38           -0.9288    -0.5516     0.0083 H       
  39 H39            1.2004    -1.7709    -0.0185 H       
  40 H40            1.1506     3.1715     0.0084 H       
  41 H41            5.6983    -0.6536    -0.0536 H       
  42 H42            4.4657    -2.5244     0.4612 H       
  43 H43            2.6861    -2.4911     0.4779 H       
  44 H44            5.6853    -2.7256    -1.6258 H       
  45 H45            5.6534    -3.5332    -3.9505 H       
  46 H46            1.3787    -3.4541    -3.9100 H       
  47 H47            1.4207    -2.6517    -1.5837 H       
  48 H48            1.3646    -4.1197    -5.8222 H       
  49 H49            2.1520    -4.9516    -8.1847 H       
  50 H50            4.8191    -4.9951    -8.1937 H       
  51 H51            7.2526     4.2388    -1.7920 H       
  52 H52            8.4826     6.3706    -1.7859 H       
  53 H53            8.0527     8.0370    -0.0268 H       
  54 H54            6.3932     7.5770     1.7318 H       
  55 H55            4.4218     4.3901     1.8706 H       
  56 H56            6.3885     4.6980     3.4034 H       
  57 H57            5.9183     6.4025     3.6083 H       
  58 H58            3.0362     6.2371     2.7746 H       
  59 H59            4.2151     7.4215     2.1617 H       
  60 H60            3.2824     6.4223     1.0215 H       
  61 H61            5.0373     5.0076     5.4594 H       
  62 H62            3.7118     5.6884     4.4858 H       
  63 H63            4.1820     3.9839     4.2809 H       
@<TRIPOS>BOND
   1    1    2 ar
   2    1    6 ar
   3    1   37 1
   4    2    3 ar
   5    2   38 1
   6    3    4 ar
   7    3   39 1
   8    4    5 ar
   9    4    7 1
  10    5    6 ar
  11    5   10 1
  12    6   40 1
  13    7    8 1
  14    7   15 1
  15    8    9 2
  16    8   41 1
  17    9   10 1
  18    9   11 1
  19   10   13 2
  20   11   12 am
  21   11   14 2
  22   12   13 1
  23   12   27 1
  24   15   16 1
  25   15   42 1
  26   15   43 1
  27   16   17 ar
  28   16   21 ar
  29   17   18 ar
  30   17   44 1
  31   18   19 ar
  32   18   45 1
  33   19   20 ar
  34   19   22 1
  35   20   21 ar
  36   20   46 1
  37   21   47 1
  38   22   23 1
  39   22   26 1
  40   23   24 2
  41   23   48 1
  42   24   25 1
  43   24   49 1
  44   25   26 2
  45   25   50 1
  46   27   28 ar
  47   27   32 ar
  48   28   29 ar
  49   28   51 1
  50   29   30 ar
  51   29   52 1
  52   30   31 ar
  53   30   53 1
  54   31   32 ar
  55   31   54 1
  56   32   33 1
  57   33   34 1
  58   33   35 1
  59   33   55 1
  60   34   36 1
  61   34   56 1
  62   34   57 1
  63   35   58 1
  64   35   59 1
  65   35   60 1
  66   36   61 1
  67   36   62 1
  68   36   63 1

#	End of record

