#	Name: ASD01816645
#	Creating user name:	WinNT
#	Creation time:	15. 06. 2019 19:35

#	Modifying user name:	WinNT
#	Modification time:	15. 06. 2019 19:35

#	Program:	/corina/corina34_cracker 3.40 0067  02.08.2006

@<TRIPOS>MOLECULE
ASD01816645
  45   49    0    0    0
SMALL
NO_CHARGES


@<TRIPOS>ATOM
   1 C1            -0.0167     1.3813     0.0096 C.ar    
   2 C2             0.0021    -0.0041     0.0020 C.ar    
   3 C3             1.1983    -0.6909    -0.0131 C.ar    
   4 C4             2.4015     0.0059    -0.0203 C.ar    
   5 C5             2.3790     1.4106    -0.0126 C.ar    
   6 C6             1.1663     2.0917     0.0022 C.ar    
   7 N7             3.6053    -0.6772    -0.0345 N.pl3   
   8 C8             4.7970    -0.0585    -0.0420 C.2     
   9 C9             4.8999     1.3103    -0.0356 C.2     
  10 C10            3.6670     2.1301    -0.0205 C.2     
  11 C11            5.9971     2.2730    -0.0400 C.2     
  12 N12            5.4245     3.4961    -0.0285 N.am    
  13 N13            4.0323     3.3800    -0.0170 N.2     
  14 O14            7.1912     2.0231    -0.0511 O.2     
  15 C15            6.1234     4.7030    -0.0274 C.ar    
  16 C16            3.5779    -2.1419    -0.0411 C.3     
  17 C17            3.5555    -2.6375    -1.4641 C.ar    
  18 C18            4.7425    -2.8870    -2.1273 C.ar    
  19 C19            4.7233    -3.3419    -3.4321 C.ar    
  20 C20            3.5144    -3.5478    -4.0751 C.ar    
  21 C21            2.3262    -3.2976    -3.4099 C.ar    
  22 C22            2.3479    -2.8478    -2.1033 C.ar    
  23 F23            3.4944    -3.9921    -5.3508 F       
  24 C24            7.0603     4.9672    -1.0165 C.ar    
  25 C25            5.8785     5.6590     0.9707 C.ar    
  26 C26            6.5851     6.8635     0.9604 C.ar    
  27 C27            7.5163     7.1060    -0.0271 C.ar    
  28 C28            7.7516     6.1627    -1.0135 C.ar    
  29 C29            4.9097     5.4009     1.9931 C.1     
  30 N30            4.1411     5.1962     2.8042 N.1     
  31 H31           -0.9602     1.9068     0.0169 H       
  32 H32           -0.9289    -0.5515     0.0083 H       
  33 H33            1.2003    -1.7709    -0.0189 H       
  34 H34            1.1506     3.1715     0.0077 H       
  35 H35            5.6983    -0.6535    -0.0531 H       
  36 H36            4.4656    -2.5242     0.4629 H       
  37 H37            2.6860    -2.4910     0.4793 H       
  38 H38            5.6853    -2.7259    -1.6257 H       
  39 H39            5.6507    -3.5364    -3.9502 H       
  40 H40            1.3827    -3.4579    -3.9104 H       
  41 H41            1.4212    -2.6525    -1.5842 H       
  42 H42            7.2492     4.2368    -1.7894 H       
  43 H43            6.4021     7.6042     1.7248 H       
  44 H44            8.0620     8.0380    -0.0338 H       
  45 H45            8.4832     6.3615    -1.7826 H       
@<TRIPOS>BOND
   1    1    2 ar
   2    1    6 ar
   3    1   31 1
   4    2    3 ar
   5    2   32 1
   6    3    4 ar
   7    3   33 1
   8    4    5 ar
   9    4    7 1
  10    5    6 ar
  11    5   10 1
  12    6   34 1
  13    7    8 1
  14    7   16 1
  15    8    9 2
  16    8   35 1
  17    9   10 1
  18    9   11 1
  19   10   13 2
  20   11   12 am
  21   11   14 2
  22   12   13 1
  23   12   15 1
  24   15   24 ar
  25   15   25 ar
  26   16   17 1
  27   16   36 1
  28   16   37 1
  29   17   18 ar
  30   17   22 ar
  31   18   19 ar
  32   18   38 1
  33   19   20 ar
  34   19   39 1
  35   20   21 ar
  36   20   23 1
  37   21   22 ar
  38   21   40 1
  39   22   41 1
  40   24   28 ar
  41   24   42 1
  42   25   26 ar
  43   25   29 1
  44   26   27 ar
  45   26   43 1
  46   27   28 ar
  47   27   44 1
  48   28   45 1
  49   29   30 3

#	End of record

