#	Name: ASD05730120
#	Creating user name:	WinNT
#	Creation time:	15. 06. 2019 21:02

#	Modifying user name:	WinNT
#	Modification time:	15. 06. 2019 21:02

#	Program:	/corina/corina34_cracker 3.40 0067  02.08.2006

@<TRIPOS>MOLECULE
ASD05730120
  81   85    0    0    0
SMALL
NO_CHARGES


@<TRIPOS>ATOM
   1 C1             0.0269     1.5031     0.0296 C.3     
   2 C2             0.0353    -0.0039     0.0162 C.ar    
   3 C3             1.0717    -0.6825    -0.5983 C.ar    
   4 C4             1.0825    -2.0634    -0.6124 C.ar    
   5 C5             0.0510    -2.7707    -0.0080 C.ar    
   6 C6            -0.9883    -2.0859     0.6087 C.ar    
   7 C7            -0.9905    -0.7049     0.6234 C.ar    
   8 N8             0.0586    -4.1686    -0.0209 N.pl3   
   9 C9             0.5628    -4.8467    -1.1140 C.ar    
  10 N10            0.6625    -6.1659    -1.0558 N.ar    
  11 C11            1.1419    -6.8525    -2.0868 C.ar    
  12 C12            1.5420    -6.1483    -3.2432 C.ar    
  13 C13            1.4164    -4.7509    -3.2552 C.ar    
  14 N14            0.9246    -4.1518    -2.1869 N.ar    
  15 N15            1.2492    -8.2193    -2.0351 N.am    
  16 C16            1.7370    -8.9104    -3.0832 C.2     
  17 C17            2.1613    -8.2107    -4.2976 C.2     
  18 C18            2.0563    -6.8469    -4.3592 C.2     
  19 C19            0.8295    -8.9343    -0.8272 C.3     
  20 O20            1.8259   -10.1236    -3.0205 O.2     
  21 C21            2.6981    -8.9718    -5.4500 C.ar    
  22 C22            3.9870    -9.5014    -5.3997 C.ar    
  23 C23           -1.2323     2.0136    -0.6764 C.3     
  24 C24            0.0319     2.0012     1.4767 C.3     
  25 N25            0.0024     3.4693     1.4904 N.3     
  26 C26           -1.2207     3.9818     0.8598 C.3     
  27 C27           -1.2631     3.5428    -0.6056 C.3     
  28 C28           -0.2883    -9.9178    -1.1794 C.3     
  29 C29            1.9141    -9.1663    -6.5870 C.ar    
  30 C30            2.4193    -9.8763    -7.6566 C.ar    
  31 C31            3.7009   -10.3949    -7.6030 C.ar    
  32 C32            4.4813   -10.2098    -6.4760 C.ar    
  33 C33            0.5178    -8.6025    -6.6468 C.3     
  34 C34            0.1458     3.9859     2.8581 C.3     
  35 C35            2.0203    -9.7014    -0.2489 C.3     
  36 S36            6.1122   -10.8742    -6.4171 S.o2    
  37 C37            7.1629    -9.5544    -7.0842 C.3     
  38 O38            6.3650   -11.0602    -5.0312 O.2     
  39 O39            6.0729   -11.9793    -7.3095 O.2     
  40 C40            8.6218   -10.0154    -7.0852 C.3     
  41 O41            9.4495    -8.9758    -7.6107 O.3     
  42 C42           10.8391    -9.3059    -7.6557 C.3     
  43 H43            0.9108     1.8765    -0.4875 H       
  44 H44            1.8734    -0.1320    -1.0680 H       
  45 H45            1.8918    -2.5929    -1.0931 H       
  46 H46           -1.7918    -2.6328     1.0795 H       
  47 H47           -1.7982    -0.1718     1.1028 H       
  48 H48           -0.2902    -4.6625     0.7376 H       
  49 H49            1.7119    -4.1781    -4.1217 H       
  50 H50            2.3641    -6.3128    -5.2460 H       
  51 H51            0.4652    -8.2191    -0.0898 H       
  52 H52            4.5973    -9.3572    -4.5205 H       
  53 H53           -1.2186     1.6974    -1.7194 H       
  54 H54           -2.1159     1.6082    -0.1835 H       
  55 H55           -0.8450     1.6154     1.9966 H       
  56 H56            0.9343     1.6513     1.9781 H       
  57 H57           -2.0918     3.5868     1.3826 H       
  58 H58           -1.2281     5.0704     0.9132 H       
  59 H59           -0.3995     3.9489    -1.1323 H       
  60 H60           -2.1787     3.9102    -1.0692 H       
  61 H61            0.0759   -10.6330    -1.9168 H       
  62 H62           -0.6006   -10.4498    -0.2807 H       
  63 H63           -1.1367    -9.3713    -1.5914 H       
  64 H64            1.8130   -10.0278    -8.5375 H       
  65 H65            4.0921   -10.9500    -8.4428 H       
  66 H66            0.5499    -7.5961    -7.0644 H       
  67 H67           -0.1039    -9.2379    -7.2775 H       
  68 H68            0.0975    -8.5656    -5.6418 H       
  69 H69            1.0957     3.6515     3.2751 H       
  70 H70            0.1207     5.0754     2.8394 H       
  71 H71           -0.6726     3.6141     3.4746 H       
  72 H72            2.8167    -9.0007     0.0019 H       
  73 H73            1.7080   -10.2333     0.6497 H       
  74 H74            2.3846   -10.4166    -0.9864 H       
  75 H75            6.8538    -9.3244    -8.1038 H       
  76 H76            7.0640    -8.6631    -6.4647 H       
  77 H77            8.9309   -10.2455    -6.0656 H       
  78 H78            8.7207   -10.9068    -7.7048 H       
  79 H79           10.9840   -10.1826    -8.2871 H       
  80 H80           11.3990    -8.4658    -8.0664 H       
  81 H81           11.1942    -9.5213    -6.6479 H       
@<TRIPOS>BOND
   1    1    2 1
   2    1   23 1
   3    1   24 1
   4    1   43 1
   5    2    3 ar
   6    2    7 ar
   7    3    4 ar
   8    3   44 1
   9    4    5 ar
  10    4   45 1
  11    5    6 ar
  12    5    8 1
  13    6    7 ar
  14    6   46 1
  15    7   47 1
  16    8    9 1
  17    8   48 1
  18    9   10 ar
  19    9   14 ar
  20   10   11 ar
  21   11   12 ar
  22   11   15 1
  23   12   13 ar
  24   12   18 1
  25   13   14 ar
  26   13   49 1
  27   15   16 am
  28   15   19 1
  29   16   17 1
  30   16   20 2
  31   17   18 2
  32   17   21 1
  33   18   50 1
  34   19   35 1
  35   19   28 1
  36   19   51 1
  37   21   29 ar
  38   21   22 ar
  39   22   32 ar
  40   22   52 1
  41   23   27 1
  42   23   53 1
  43   23   54 1
  44   24   25 1
  45   24   55 1
  46   24   56 1
  47   25   26 1
  48   25   34 1
  49   26   27 1
  50   26   57 1
  51   26   58 1
  52   27   59 1
  53   27   60 1
  54   28   61 1
  55   28   62 1
  56   28   63 1
  57   29   30 ar
  58   29   33 1
  59   30   31 ar
  60   30   64 1
  61   31   32 ar
  62   31   65 1
  63   32   36 1
  64   33   66 1
  65   33   67 1
  66   33   68 1
  67   34   69 1
  68   34   70 1
  69   34   71 1
  70   35   72 1
  71   35   73 1
  72   35   74 1
  73   36   37 1
  74   36   38 2
  75   36   39 2
  76   37   40 1
  77   37   75 1
  78   37   76 1
  79   40   41 1
  80   40   77 1
  81   40   78 1
  82   41   42 1
  83   42   79 1
  84   42   80 1
  85   42   81 1

#	End of record

