#	Name: ASD07931920
#	Creating user name:	WinNT
#	Creation time:	15. 06. 2019 21:13

#	Modifying user name:	WinNT
#	Modification time:	15. 06. 2019 21:13

#	Program:	/corina/corina34_cracker 3.40 0067  02.08.2006

@<TRIPOS>MOLECULE
ASD07931920
  48   50    0    0    0
SMALL
NO_CHARGES


@<TRIPOS>ATOM
   1 C1            -0.0180     1.4735     0.0101 C.2     
   2 C2             0.0021    -0.0041     0.0020 C.ar    
   3 C3             1.2187    -0.6887    -0.0133 C.ar    
   4 C4             1.2302    -2.0681    -0.0208 C.ar    
   5 C5             0.0396    -2.7731    -0.0138 C.ar    
   6 C6            -1.1696    -2.1008     0.0014 C.ar    
   7 C7            -1.1955    -0.7216     0.0154 C.ar    
   8 O8             1.0261     2.0954     0.0035 O.2     
   9 N9            -1.1942     2.1314     0.0193 N.am    
  10 C10           -1.2125     3.4790     0.0267 C.2     
  11 N11           -2.3887     4.1370     0.0359 N.am    
  12 S12            0.2584     4.3551     0.0245 S.2     
  13 O13           -2.5113     7.3213    -1.5825 O.3     
  14 C14           -1.7306     6.1594    -1.2273 C.3     
  15 C15           -2.4086     5.6018     0.0439 C.3     
  16 C16           -3.8590     6.1270    -0.0431 C.3     
  17 C17           -3.8858     6.9397    -1.3565 C.3     
  18 C18           -4.7641     8.1823    -1.1962 C.3     
  19 F19           -4.7175     8.9410    -2.3707 F       
  20 F20           -6.0838     7.7914    -0.9456 F       
  21 F21           -4.2940     8.9506    -0.1258 F       
  22 C22           -4.8479     4.9616    -0.1135 C.3     
  23 O23           -6.1838     5.4675    -0.0758 O.3     
  24 C24           -1.7286     6.1310     1.2803 C.ar    
  25 C25           -1.6565     7.4957     1.5001 C.ar    
  26 C26           -1.0305     7.9809     2.6381 C.ar    
  27 C27           -0.4792     7.0997     3.5520 C.ar    
  28 C28           -0.5529     5.7376     3.3296 C.ar    
  29 C29           -1.1821     5.2535     2.1977 C.ar    
  30 F30           -0.9585     9.3125     2.8545 F       
  31 F31           -2.1950     8.3539     0.6065 F       
  32 H32            2.1487    -0.1397    -0.0195 H       
  33 H33            2.1706    -2.5990    -0.0327 H       
  34 H34            0.0543    -3.8530    -0.0205 H       
  35 H35           -2.0953    -2.6571     0.0065 H       
  36 H36           -2.1400    -0.1981     0.0321 H       
  37 H37           -2.0276     1.6351     0.0206 H       
  38 H38           -3.2221     3.6406     0.0371 H       
  39 H39           -1.7622     5.4214    -2.0289 H       
  40 H40           -0.7006     6.4451    -1.0137 H       
  41 H41           -4.0843     6.7694     0.8082 H       
  42 H42           -4.2479     6.3215    -2.1780 H       
  43 H43           -4.6942     4.4103    -1.0411 H       
  44 H44           -4.6870     4.2969     0.7352 H       
  45 H45           -6.8651     4.7824    -0.1168 H       
  46 H46            0.0090     7.4764     4.4387 H       
  47 H47           -0.1225     5.0504     4.0431 H       
  48 H48           -1.2426     4.1886     2.0278 H       
@<TRIPOS>BOND
   1    1    2 1
   2    1    8 2
   3    1    9 am
   4    2    3 ar
   5    2    7 ar
   6    3    4 ar
   7    3   32 1
   8    4    5 ar
   9    4   33 1
  10    5    6 ar
  11    5   34 1
  12    6    7 ar
  13    6   35 1
  14    7   36 1
  15    9   10 am
  16    9   37 1
  17   10   11 am
  18   10   12 2
  19   11   15 1
  20   11   38 1
  21   13   14 1
  22   13   17 1
  23   14   15 1
  24   14   39 1
  25   14   40 1
  26   15   24 1
  27   15   16 1
  28   16   17 1
  29   16   22 1
  30   16   41 1
  31   17   18 1
  32   17   42 1
  33   18   19 1
  34   18   20 1
  35   18   21 1
  36   22   23 1
  37   22   43 1
  38   22   44 1
  39   23   45 1
  40   24   25 ar
  41   24   29 ar
  42   25   26 ar
  43   25   31 1
  44   26   27 ar
  45   26   30 1
  46   27   28 ar
  47   27   46 1
  48   28   29 ar
  49   28   47 1
  50   29   48 1

#	End of record

