#	Name: ASD08150753
#	Creating user name:	WinNT
#	Creation time:	15. 06. 2019 21:16

#	Modifying user name:	WinNT
#	Modification time:	15. 06. 2019 21:16

#	Program:	/corina/corina34_cracker 3.40 0067  02.08.2006

@<TRIPOS>MOLECULE
ASD08150753
  31   33    0    0    0
SMALL
NO_CHARGES


@<TRIPOS>ATOM
   1 C1            -0.0922     1.1439     0.0570 C.2     
   2 N2             0.1180    -0.1576     0.1264 N.2     
   3 C3             1.3398    -0.6695     0.0690 C.2     
   4 C4             2.4244     0.1888    -0.0676 C.2     
   5 C5             2.1937     1.5742    -0.1409 C.2     
   6 N6             0.9157     2.0503    -0.0770 N.am    
   7 S7            -1.5903     2.0905     0.0990 S.3     
   8 C8             0.5216     3.3646    -0.1340 C.2     
   9 C9            -0.7661     3.6513    -0.0588 C.2     
  10 O10            3.1309     2.3467    -0.2606 O.2     
  11 S11            6.1418    -0.9736    -0.8630 S.3     
  12 C12            5.5687    -1.4464     0.6762 C.2     
  13 N13            4.3614    -1.0323     0.8547 N.2     
  14 C14            3.8052    -0.3484    -0.1346 C.2     
  15 C15            4.6052    -0.1835    -1.2074 C.2     
  16 C16            1.5424     4.4633    -0.2815 C.3     
  17 C17            1.5493    -2.1596     0.1513 C.3     
  18 C18            1.1646    -2.6524     1.5478 C.3     
  19 N19            0.7103    -2.8282    -0.8522 N.3     
  20 H20           -1.2208     4.6304    -0.0914 H       
  21 H21            6.1383    -2.0130     1.3979 H       
  22 H22            4.3494     0.3401    -2.1167 H       
  23 H23            1.7129     4.6613    -1.3397 H       
  24 H24            1.1749     5.3681     0.2028 H       
  25 H25            2.4778     4.1554     0.1859 H       
  26 H26            2.5974    -2.3902    -0.0394 H       
  27 H27            1.3162    -3.7302     1.6073 H       
  28 H28            1.7872    -2.1563     2.2924 H       
  29 H29            0.1165    -2.4218     1.7385 H       
  30 H30            0.9004    -2.4728    -1.7772 H       
  31 H31            0.8329    -3.8291    -0.8172 H       
@<TRIPOS>BOND
   1    1    2 2
   2    1    6 1
   3    1    7 1
   4    2    3 1
   5    3    4 2
   6    3   17 1
   7    4    5 1
   8    4   14 1
   9    5    6 am
  10    5   10 2
  11    6    8 1
  12    7    9 1
  13    8    9 2
  14    8   16 1
  15    9   20 1
  16   11   12 1
  17   11   15 1
  18   12   13 2
  19   12   21 1
  20   13   14 1
  21   14   15 2
  22   15   22 1
  23   16   23 1
  24   16   24 1
  25   16   25 1
  26   17   18 1
  27   17   19 1
  28   17   26 1
  29   18   27 1
  30   18   28 1
  31   18   29 1
  32   19   30 1
  33   19   31 1

#	End of record

