#	Name: ASD00170704
#	Creating user name:	WinNT
#	Creation time:	15. 06. 2019 18:32

#	Modifying user name:	WinNT
#	Modification time:	15. 06. 2019 18:32

#	Program:	/corina/corina34_cracker 3.40 0067  02.08.2006

@<TRIPOS>MOLECULE
ASD00170704
  35   38    0    0    0
SMALL
NO_CHARGES


@<TRIPOS>ATOM
   1 C1            -0.0166     1.3694     0.0096 C.2     
   2 C2             0.0022    -0.0035    -0.0314 C.2     
   3 C3             1.3503    -0.5520    -0.0386 C.2     
   4 C4             2.3285     0.4257    -0.0017 C.2     
   5 S5             1.6084     2.0224     0.0402 S.3     
   6 C6             1.2225    -2.0207    -0.0839 C.2     
   7 C7            -0.2146    -2.3450    -0.1036 C.ar    
   8 C8            -0.8939    -3.5651    -0.1456 C.ar    
   9 C9            -2.2728    -3.5840    -0.1562 C.ar    
  10 C10           -2.9940    -2.4009    -0.1254 C.ar    
  11 C11           -2.3411    -1.1856    -0.0838 C.ar    
  12 C12           -0.9479    -1.1474    -0.0726 C.ar    
  13 O13            2.1405    -2.8220    -0.1021 O.2     
  14 C14           -1.2437     2.1865     0.0200 C.ar    
  15 C15           -1.3920     3.2171     0.9528 C.ar    
  16 C16           -2.5403     3.9783     0.9584 C.ar    
  17 C17           -3.5500     3.7230     0.0390 C.ar    
  18 C18           -3.4072     2.6999    -0.8899 C.ar    
  19 C19           -2.2602     1.9368    -0.9066 C.ar    
  20 O20           -4.6806     4.4758     0.0485 O.3     
  21 C21           -5.6788     4.1597    -0.9240 C.3     
  22 N22            3.6795     0.1785     0.0003 N.pl3   
  23 H23           -4.0736    -2.4300    -0.1345 H       
  24 H24           -0.3400    -4.4920    -0.1701 H       
  25 H25           -2.7951    -4.5288    -0.1890 H       
  26 H26           -2.9082    -0.2668    -0.0603 H       
  27 H27           -0.6077     3.4161     1.6681 H       
  28 H28           -2.6559     4.7745     1.6789 H       
  29 H29           -4.1948     2.5050    -1.6028 H       
  30 H30           -2.1483     1.1443    -1.6318 H       
  31 H31           -6.5268     4.8344    -0.8068 H       
  32 H32           -5.2602     4.2726    -1.9241 H       
  33 H33           -6.0106     3.1311    -0.7830 H       
  34 H34            4.0055    -0.7347    -0.0255 H       
  35 H35            4.3077     0.9171     0.0274 H       
@<TRIPOS>BOND
   1    1    2 2
   2    1    5 1
   3    1   14 1
   4    2    3 1
   5    2   12 1
   6    3    4 2
   7    3    6 1
   8    4    5 1
   9    4   22 1
  10    6    7 1
  11    6   13 2
  12    7    8 ar
  13    7   12 ar
  14    8    9 ar
  15    8   24 1
  16    9   10 ar
  17    9   25 1
  18   10   11 ar
  19   10   23 1
  20   11   12 ar
  21   11   26 1
  22   14   15 ar
  23   14   19 ar
  24   15   16 ar
  25   15   27 1
  26   16   17 ar
  27   16   28 1
  28   17   18 ar
  29   17   20 1
  30   18   19 ar
  31   18   29 1
  32   19   30 1
  33   20   21 1
  34   21   31 1
  35   21   32 1
  36   21   33 1
  37   22   34 1
  38   22   35 1

#	End of record

