#	Name: ASD09116273
#	Creating user name:	WinNT
#	Creation time:	15. 06. 2019 21:21

#	Modifying user name:	WinNT
#	Modification time:	15. 06. 2019 21:21

#	Program:	/corina/corina34_cracker 3.40 0067  02.08.2006

@<TRIPOS>MOLECULE
ASD09116273
  71   77    0    0    0
SMALL
NO_CHARGES


@<TRIPOS>ATOM
   1 N1            -0.0578     1.4842     0.3732 N.pl3   
   2 N2            -0.0735     0.1273     0.7342 N.2     
   3 C3             1.2446     1.8506     0.3206 C.2     
   4 N4             1.9739     0.7985     0.6262 N.2     
   5 C5             1.1758    -0.2455     0.8768 C.2     
   6 N6             1.7236     3.1076     0.0016 N.pl3   
   7 C7             3.0943     3.3793     0.0959 C.ar    
   8 C8             3.6736     4.3242    -0.7401 C.ar    
   9 C9             5.0257     4.5929    -0.6478 C.ar    
  10 C10            5.8057     3.9189     0.2809 C.ar    
  11 C11            5.2262     2.9723     1.1193 C.ar    
  12 C12            3.8727     2.7074     1.0298 C.ar    
  13 C13           -1.1653     2.2934     0.1139 C.ar    
  14 N14           -1.0774     3.6060     0.2692 N.ar    
  15 N15           -2.0695     4.3944     0.0532 N.ar    
  16 C16           -3.2473     3.9360    -0.3393 C.ar    
  17 C17           -3.4276     2.5660    -0.5501 C.ar    
  18 C18           -2.3648     1.7195    -0.3150 C.ar    
  19 C19           -4.4071     4.8361    -0.5366 C.ar    
  20 C20           -5.6273     4.5035     0.0538 C.ar    
  21 C21           -5.7186     3.2752     0.9172 C.3     
  22 C22           -5.7751     2.0045     0.0736 C.3     
  23 C23           -4.7470     2.0573    -1.0533 C.3     
  24 C24           -4.2957     5.9938    -1.2986 C.ar    
  25 C25           -5.4021     6.8004    -1.4826 C.ar    
  26 C26           -6.6145     6.4563    -0.9131 C.ar    
  27 C27           -6.7275     5.3091    -0.1468 C.ar    
  28 N28            1.6034    -1.5242     1.2327 N.pl3   
  29 N29            7.1770     4.1914     0.3739 N.3     
  30 F30            5.9850     2.3156     2.0238 F       
  31 C31            7.5511     4.5624     1.7559 C.3     
  32 C32            8.6781     5.6069     1.6538 C.3     
  33 C33            8.8920     5.8232     0.1381 C.3     
  34 C34            7.5471     5.3548    -0.4720 C.3     
  35 N35            9.1300     7.2426    -0.1560 N.3     
  36 C36           10.3471     7.7258     0.5215 C.3     
  37 C37           11.2815     8.2941    -0.5672 C.3     
  38 C38           10.3066     8.6192    -1.7295 C.3     
  39 C39            9.2810     7.4644    -1.6099 C.3     
  40 H40            1.1105     3.8014    -0.2876 H       
  41 H41            3.0671     4.8493    -1.4632 H       
  42 H42            5.4757     5.3277    -1.2990 H       
  43 H43            3.4220     1.9726     1.6804 H       
  44 H44           -2.4585     0.6520    -0.4496 H       
  45 H45           -4.8460     3.2319     1.5690 H       
  46 H46           -6.6176     3.3364     1.5304 H       
  47 H47           -5.5680     1.1429     0.7082 H       
  48 H48           -6.7722     1.9023    -0.3548 H       
  49 H49           -5.1103     2.7194    -1.8392 H       
  50 H50           -4.6126     1.0562    -1.4630 H       
  51 H51           -3.3489     6.2614    -1.7441 H       
  52 H52           -5.3200     7.7016    -2.0721 H       
  53 H53           -7.4781     7.0862    -1.0671 H       
  54 H54           -7.6774     5.0459     0.2947 H       
  55 H55            2.5512    -1.7131     1.3158 H       
  56 H56            0.9530    -2.2248     1.3972 H       
  57 H57            6.6918     4.9924     2.2705 H       
  58 H58            7.9072     3.6832     2.2929 H       
  59 H59            8.3740     6.5392     2.1298 H       
  60 H60            9.5898     5.2260     2.1140 H       
  61 H61            9.7156     5.2093    -0.2267 H       
  62 H62            7.6810     5.0489    -1.5096 H       
  63 H63            6.7956     6.1406    -0.3955 H       
  64 H64           10.0887     8.5091     1.2342 H       
  65 H65           10.8374     6.8998     1.0367 H       
  66 H66           11.7773     9.1989    -0.2157 H       
  67 H67           12.0131     7.5473    -0.8754 H       
  68 H68            9.8260     9.5856    -1.5773 H       
  69 H69           10.8202     8.5873    -2.6904 H       
  70 H70            9.6637     6.5655    -2.0932 H       
  71 H71            8.3277     7.7565    -2.0503 H       
@<TRIPOS>BOND
   1    1    2 1
   2    1    3 1
   3    1   13 1
   4    2    5 2
   5    3    4 2
   6    3    6 1
   7    4    5 1
   8    5   28 1
   9    6    7 1
  10    6   40 1
  11    7    8 ar
  12    7   12 ar
  13    8    9 ar
  14    8   41 1
  15    9   10 ar
  16    9   42 1
  17   10   11 ar
  18   10   29 1
  19   11   12 ar
  20   11   30 1
  21   12   43 1
  22   13   14 ar
  23   13   18 ar
  24   14   15 ar
  25   15   16 ar
  26   16   17 ar
  27   16   19 1
  28   17   18 ar
  29   17   23 1
  30   18   44 1
  31   19   20 ar
  32   19   24 ar
  33   20   21 1
  34   20   27 ar
  35   21   22 1
  36   21   45 1
  37   21   46 1
  38   22   23 1
  39   22   47 1
  40   22   48 1
  41   23   49 1
  42   23   50 1
  43   24   25 ar
  44   24   51 1
  45   25   26 ar
  46   25   52 1
  47   26   27 ar
  48   26   53 1
  49   27   54 1
  50   28   55 1
  51   28   56 1
  52   29   31 1
  53   29   34 1
  54   31   32 1
  55   31   57 1
  56   31   58 1
  57   32   33 1
  58   32   59 1
  59   32   60 1
  60   33   34 1
  61   33   35 1
  62   33   61 1
  63   34   62 1
  64   34   63 1
  65   35   36 1
  66   35   39 1
  67   36   37 1
  68   36   64 1
  69   36   65 1
  70   37   38 1
  71   37   66 1
  72   37   67 1
  73   38   39 1
  74   38   68 1
  75   38   69 1
  76   39   70 1
  77   39   71 1

#	End of record

