#	Name: ASD01870205
#	Creating user name:	WinNT
#	Creation time:	15. 06. 2019 19:38

#	Modifying user name:	WinNT
#	Modification time:	15. 06. 2019 19:38

#	Program:	/corina/corina34_cracker 3.40 0067  02.08.2006

@<TRIPOS>MOLECULE
ASD01870205
  52   56    0    0    0
SMALL
NO_CHARGES


@<TRIPOS>ATOM
   1 Cl1            3.3055    -4.1362    -5.6613 Cl      
   2 C2            -0.0168     1.3890     0.0097 C.ar    
   3 C3             0.0021    -0.0041     0.0020 C.ar    
   4 C4             1.1787    -0.6895    -0.0125 C.ar    
   5 C5             2.3941     0.0134    -0.0203 C.ar    
   6 C6             2.3756     1.4326    -0.0130 C.ar    
   7 C7             1.1407     2.1050     0.0025 C.ar    
   8 C8             3.6272    -0.6637    -0.0358 C.ar    
   9 C9             4.7900     0.0351    -0.0436 C.ar    
  10 C10            4.7882     1.4439    -0.0361 C.ar    
  11 C11            3.5864     2.1337    -0.0214 C.ar    
  12 C12            5.8880     2.4286    -0.0415 C.2     
  13 N13            5.3952     3.6790    -0.0301 N.am    
  14 C14            3.9298     3.6021    -0.0168 C.3     
  15 C15            6.1876     4.9112    -0.0312 C.3     
  16 C16            7.0825     4.9431     1.2094 C.3     
  17 C17            7.9100     6.2300     1.2082 C.3     
  18 C18            8.7800     6.2758    -0.0495 C.3     
  19 C19            7.8851     6.2438    -1.2901 C.3     
  20 C20            7.0575     4.9570    -1.2890 C.3     
  21 C21            3.6565    -2.1704    -0.0431 C.3     
  22 C22            3.5284    -2.6685    -1.4596 C.ar    
  23 C23            4.6546    -2.8759    -2.2323 C.ar    
  24 N24            4.5511    -3.3113    -3.4732 N.ar    
  25 C25            3.3791    -3.5650    -4.0236 C.ar    
  26 C26            2.2078    -3.3805    -3.3099 C.ar    
  27 C27            2.2785    -2.9297    -2.0015 C.ar    
  28 O28            7.0708     2.1485    -0.0540 O.2     
  29 O29            6.2699     4.9004     2.3841 O.3     
  30 H30           -0.9637     1.9083     0.0170 H       
  31 H31           -0.9306    -0.5486     0.0080 H       
  32 H32            1.1770    -1.7695    -0.0175 H       
  33 H33            1.1108     3.1846     0.0079 H       
  34 H34            5.7302    -0.4960    -0.0555 H       
  35 H35            3.5210     4.0855    -0.9040 H       
  36 H36            3.5378     4.0759     0.8832 H       
  37 H37            5.5198     5.7726    -0.0198 H       
  38 H38            7.7503     4.0817     1.1979 H       
  39 H39            7.2422     7.0914     1.2196 H       
  40 H40            8.5476     6.2528     2.0920 H       
  41 H41            9.3695     7.1926    -0.0504 H       
  42 H42            9.4478     5.4144    -0.0610 H       
  43 H43            7.2173     7.1053    -1.2787 H       
  44 H44            8.5048     6.2765    -2.1862 H       
  45 H45            7.7253     4.0956    -1.3004 H       
  46 H46            6.4200     4.9342    -2.1728 H       
  47 H47            4.5991    -2.5175     0.3803 H       
  48 H48            2.8279    -2.5529     0.5529 H       
  49 H49            5.6313    -2.6790    -1.8156 H       
  50 H50            1.2511    -3.5894    -3.7654 H       
  51 H51            1.3812    -2.7768    -1.4203 H       
  52 H52            6.7719     4.9175     3.2104 H       
@<TRIPOS>BOND
   1    1   25 1
   2    2    3 ar
   3    2    7 ar
   4    2   30 1
   5    3    4 ar
   6    3   31 1
   7    4    5 ar
   8    4   32 1
   9    5    6 ar
  10    5    8 ar
  11    6    7 ar
  12    6   11 ar
  13    7   33 1
  14    8    9 ar
  15    8   21 1
  16    9   10 ar
  17    9   34 1
  18   10   11 ar
  19   10   12 1
  20   11   14 1
  21   12   13 am
  22   12   28 2
  23   13   14 1
  24   13   15 1
  25   14   35 1
  26   14   36 1
  27   15   16 1
  28   15   20 1
  29   15   37 1
  30   16   17 1
  31   16   29 1
  32   16   38 1
  33   17   18 1
  34   17   39 1
  35   17   40 1
  36   18   19 1
  37   18   41 1
  38   18   42 1
  39   19   20 1
  40   19   43 1
  41   19   44 1
  42   20   45 1
  43   20   46 1
  44   21   22 1
  45   21   47 1
  46   21   48 1
  47   22   23 ar
  48   22   27 ar
  49   23   24 ar
  50   23   49 1
  51   24   25 ar
  52   25   26 ar
  53   26   27 ar
  54   26   50 1
  55   27   51 1
  56   29   52 1

#	End of record

