#	Name: ASD01815233
#	Creating user name:	WinNT
#	Creation time:	15. 06. 2019 19:33

#	Modifying user name:	WinNT
#	Modification time:	15. 06. 2019 19:33

#	Program:	/corina/corina34_cracker 3.40 0067  02.08.2006

@<TRIPOS>MOLECULE
ASD01815233
  45   48    0    0    0
SMALL
NO_CHARGES


@<TRIPOS>ATOM
   1 C1            -2.3101    -2.7598     0.0149 C.2     
   2 C2            -1.0674    -1.9753    -0.0065 C.2     
   3 C3             0.1607    -2.6059    -0.0134 C.2     
   4 O4            -2.2619    -3.9744     0.0267 O.2     
   5 O5            -3.5031    -2.1324     0.0270 O.3     
   6 C6            -1.1115    -0.5043    -0.0272 C.2     
   7 C7             0.1798     0.2081    -0.0485 C.ar    
   8 C8             1.3649    -0.5462    -0.0479 C.ar    
   9 C9             2.5922     0.1157    -0.0679 C.ar    
  10 C10            2.6303     1.4945    -0.0879 C.ar    
  11 C11            1.4574     2.2355    -0.0880 C.ar    
  12 C12            0.2346     1.6017    -0.0685 C.ar    
  13 O13           -2.1699     0.0994    -0.0272 O.2     
  14 N14            1.3126    -1.9239    -0.0328 N.pl3   
  15 C15            2.5712    -2.6735    -0.0378 C.3     
  16 C16            3.0912    -2.7916     1.3717 C.ar    
  17 C17            2.7978    -3.9221     2.1129 C.ar    
  18 C18            3.2771    -4.0267     3.4068 C.ar    
  19 C19            4.0458    -2.9748     3.9164 C.ar    
  20 C20            4.2971    -1.8691     3.1050 C.ar    
  21 N21            3.8233    -1.8177     1.8770 N.ar    
  22 C22            4.5836    -3.0345     5.2954 C.ar    
  23 C23            5.9471    -2.7719     5.5371 C.ar    
  24 C24            6.4389    -2.8318     6.8442 C.ar    
  25 C25            5.5907    -3.1461     7.8848 C.ar    
  26 C26            4.2509    -3.4039     7.6448 C.ar    
  27 C27            3.7448    -3.3445     6.3613 C.ar    
  28 C28            6.8223    -2.4464     4.4514 C.1     
  29 F29            3.7426    -0.5927    -0.0672 F       
  30 O30            7.4357    -2.2184     3.6906 O.3     
  31 H31            0.1933    -3.6854    -0.0024 H       
  32 H32           -4.2926    -2.6906     0.0410 H       
  33 H33            3.5832     2.0025    -0.1034 H       
  34 H34            1.5033     3.3144    -0.1031 H       
  35 H35           -0.6770     2.1808    -0.0693 H       
  36 H36            2.3994    -3.6694    -0.4463 H       
  37 H37            3.3034    -2.1500    -0.6526 H       
  38 H38            2.2007    -4.7146     1.6865 H       
  39 H39            3.0630    -4.8980     4.0080 H       
  40 H40            4.8890    -1.0497     3.4852 H       
  41 H41            7.4823    -2.6324     7.0388 H       
  42 H42            5.9735    -3.1920     8.8936 H       
  43 H43            3.5964    -3.6491     8.4682 H       
  44 H44            2.6980    -3.5426     6.1843 H       
  45 H45            8.3618    -2.0469     3.9096 H       
@<TRIPOS>BOND
   1    1    2 1
   2    1    4 2
   3    1    5 1
   4    2    3 2
   5    2    6 1
   6    3   14 1
   7    3   31 1
   8    5   32 1
   9    6    7 1
  10    6   13 2
  11    7    8 ar
  12    7   12 ar
  13    8    9 ar
  14    8   14 1
  15    9   10 ar
  16    9   29 1
  17   10   11 ar
  18   10   33 1
  19   11   12 ar
  20   11   34 1
  21   12   35 1
  22   14   15 1
  23   15   16 1
  24   15   36 1
  25   15   37 1
  26   16   17 ar
  27   16   21 ar
  28   17   18 ar
  29   17   38 1
  30   18   19 ar
  31   18   39 1
  32   19   20 ar
  33   19   22 1
  34   20   21 ar
  35   20   40 1
  36   22   23 ar
  37   22   27 ar
  38   23   24 ar
  39   23   28 1
  40   24   25 ar
  41   24   41 1
  42   25   26 ar
  43   25   42 1
  44   26   27 ar
  45   26   43 1
  46   27   44 1
  47   28   30 3
  48   30   45 1

#	End of record

