#	Name: ASD03731565
#	Creating user name:	WinNT
#	Creation time:	15. 06. 2019 20:45

#	Modifying user name:	WinNT
#	Modification time:	15. 06. 2019 20:45

#	Program:	/corina/corina34_cracker 3.40 0067  02.08.2006

@<TRIPOS>MOLECULE
ASD03731565
  37   39    0    0    0
SMALL
NO_CHARGES


@<TRIPOS>ATOM
   1 C1             0.7587     1.4152    -0.4019 C.2     
   2 C2             0.5740    -0.0457    -0.3015 C.ar    
   3 C3             1.5324    -0.9114    -0.8353 C.ar    
   4 C4             1.3567    -2.2736    -0.7392 C.ar    
   5 C5             0.2277    -2.7882    -0.1120 C.ar    
   6 C6            -0.7282    -1.9303     0.4199 C.ar    
   7 C7            -0.5569    -0.5668     0.3328 C.ar    
   8 O8             1.7457     1.8669    -0.9497 O.2     
   9 N9            -0.1694     2.2485     0.1086 N.am    
  10 S10            0.0379     3.8876    -0.0041 S.o2    
  11 O11           -1.1002     4.4306     0.6510 O.2     
  12 O12            1.3482     4.1105     0.4985 O.2     
  13 C13           -0.0282     4.2309    -1.7841 C.3     
  14 C14            0.2506     5.6652    -2.2378 C.3     
  15 C15            1.2878     4.5686    -2.4877 C.3     
  16 O16            0.0581    -4.1313    -0.0192 O.3     
  17 C17            0.5844    -4.7678     1.0600 C.ar    
  18 C18            0.5310    -6.1517     1.1447 C.ar    
  19 C19            1.0669    -6.7968     2.2423 C.ar    
  20 C20            1.6568    -6.0638     3.2569 C.ar    
  21 C21            1.7110    -4.6836     3.1744 C.ar    
  22 C22            1.1809    -4.0350     2.0760 C.ar    
  23 Cl23           2.3291    -6.8769     4.6356 Cl      
  24 H24            2.4095    -0.5124    -1.3229 H       
  25 H25            2.0967    -2.9433    -1.1518 H       
  26 H26           -1.6043    -2.3338     0.9057 H       
  27 H27           -1.2977     0.0990     0.7503 H       
  28 H28           -0.9588     1.8881     0.5421 H       
  29 H29           -0.7676     3.6600    -2.3458 H       
  30 H30           -0.3051     6.0379    -3.0982 H       
  31 H31            0.4737     6.4026    -1.4667 H       
  32 H32            2.1932     4.5845    -1.8811 H       
  33 H33            1.4144     4.2198    -3.5126 H       
  34 H34            0.0704    -6.7241     0.3531 H       
  35 H35            1.0253    -7.8739     2.3087 H       
  36 H36            2.1715    -4.1133     3.9676 H       
  37 H37            1.2275    -2.9581     2.0099 H       
@<TRIPOS>BOND
   1    1    2 1
   2    1    8 2
   3    1    9 am
   4    2    3 ar
   5    2    7 ar
   6    3    4 ar
   7    3   24 1
   8    4    5 ar
   9    4   25 1
  10    5    6 ar
  11    5   16 1
  12    6    7 ar
  13    6   26 1
  14    7   27 1
  15    9   10 am
  16    9   28 1
  17   10   11 2
  18   10   12 2
  19   10   13 1
  20   13   14 1
  21   13   15 1
  22   13   29 1
  23   14   15 1
  24   14   30 1
  25   14   31 1
  26   15   32 1
  27   15   33 1
  28   16   17 1
  29   17   18 ar
  30   17   22 ar
  31   18   19 ar
  32   18   34 1
  33   19   20 ar
  34   19   35 1
  35   20   21 ar
  36   20   23 1
  37   21   22 ar
  38   21   36 1
  39   22   37 1

#	End of record

