#	Name: ASD07301373
#	Creating user name:	WinNT
#	Creation time:	15. 06. 2019 21:11

#	Modifying user name:	WinNT
#	Modification time:	15. 06. 2019 21:11

#	Program:	/corina/corina34_cracker 3.40 0067  02.08.2006

@<TRIPOS>MOLECULE
ASD07301373
  38   39    0    0    0
SMALL
NO_CHARGES


@<TRIPOS>ATOM
   1 C1            -0.0024     1.4412    -0.2713 C.2     
   2 C2             0.0017    -0.0034     0.0082 C.2     
   3 C3             1.2570    -0.6084     0.2766 C.2     
   4 C4             2.3566     0.1817     0.2568 C.2     
   5 N5             2.2553     1.5070    -0.0109 N.pl3   
   6 N6             1.1419     2.0918    -0.2588 N.2     
   7 C7            -1.2656     2.1466    -0.5664 C.2     
   8 O8            -2.3154     1.5336    -0.5799 O.2     
   9 N9            -1.2548     3.4701    -0.8206 N.am    
  10 C10            3.4247     2.2747    -0.0175 C.ar    
  11 C11            4.6650     1.6548     0.0721 C.ar    
  12 C12            5.8173     2.4155     0.0653 C.ar    
  13 C13            5.7379     3.7931    -0.0305 C.ar    
  14 C14            4.5052     4.4131    -0.1198 C.ar    
  15 C15            3.3488     3.6578    -0.1194 C.ar    
  16 C16            7.1629     1.7442     0.1630 C.3     
  17 F17            7.6304     1.4474    -1.1218 F       
  18 F18            8.0662     2.6006     0.8016 F       
  19 F19            7.0415     0.5611     0.8998 F       
  20 O20           -1.0316    -0.6542     0.0095 O.2     
  21 C21            1.3628    -2.0818     0.5745 C.3     
  22 C22           -2.5081     4.1700    -1.1133 C.3     
  23 O23           -0.0321     4.1842    -0.8048 O.3     
  24 C24            0.6297     4.2316    -2.0704 C.3     
  25 H25            3.3265    -0.2492     0.4572 H       
  26 H26            4.7277     0.5793     0.1473 H       
  27 H27            6.6407     4.3858    -0.0352 H       
  28 H28            4.4467     5.4890    -0.1941 H       
  29 H29            2.3866     4.1424    -0.1941 H       
  30 H30            0.3704    -2.5313     0.5418 H       
  31 H31            2.0020    -2.5578    -0.1691 H       
  32 H32            1.7927    -2.2220     1.5663 H       
  33 H33           -2.9448     4.5370    -0.1845 H       
  34 H34           -2.3082     5.0106    -1.7778 H       
  35 H35           -3.2038     3.4832    -1.5954 H       
  36 H36            1.5574     4.7957    -1.9745 H       
  37 H37            0.8536     3.2175    -2.4015 H       
  38 H38           -0.0173     4.7177    -2.8007 H       
@<TRIPOS>BOND
   1    1    2 1
   2    1    6 2
   3    1    7 1
   4    2    3 1
   5    2   20 2
   6    3    4 2
   7    3   21 1
   8    4    5 1
   9    4   25 1
  10    5    6 1
  11    5   10 1
  12    7    8 2
  13    7    9 am
  14    9   22 1
  15    9   23 1
  16   10   11 ar
  17   10   15 ar
  18   11   12 ar
  19   11   26 1
  20   12   13 ar
  21   12   16 1
  22   13   14 ar
  23   13   27 1
  24   14   15 ar
  25   14   28 1
  26   15   29 1
  27   16   17 1
  28   16   18 1
  29   16   19 1
  30   21   30 1
  31   21   31 1
  32   21   32 1
  33   22   33 1
  34   22   34 1
  35   22   35 1
  36   23   24 1
  37   24   36 1
  38   24   37 1
  39   24   38 1

#	End of record

