#	Name: ASD06770010
#	Creating user name:	WinNT
#	Creation time:	15. 06. 2019 21:08

#	Modifying user name:	WinNT
#	Modification time:	15. 06. 2019 21:08

#	Program:	/corina/corina34_cracker 3.40 0067  02.08.2006

@<TRIPOS>MOLECULE
ASD06770010
  35   36    0    0    0
SMALL
NO_CHARGES


@<TRIPOS>ATOM
   1 C1             0.0040     1.2231    -0.2369 C.3     
   2 C2            -0.1487    -0.2467     0.1595 C.3     
   3 C3             0.6473    -0.5154     1.4383 C.3     
   4 C4             2.1252    -0.2038     1.1940 C.3     
   5 C5             2.2778     1.2660     0.7976 C.3     
   6 C6             1.4819     1.5346    -0.4812 C.3     
   7 C7            -0.7800     1.4877    -1.4964 C.2     
   8 O8            -1.3975     0.5925    -2.0230 O.2     
   9 O9            -0.7924     2.7179    -2.0333 O.3     
  10 O10            2.8686    -0.4547     2.3884 O.3     
  11 C11            4.1892    -0.7412     2.2444 C.ar    
  12 C12            4.9457    -1.1054     3.3488 C.ar    
  13 C13            6.2879    -1.3961     3.1998 C.ar    
  14 C14            6.8776    -1.3243     1.9513 C.ar    
  15 C15            6.1260    -0.9611     0.8490 C.ar    
  16 C16            4.7819    -0.6754     0.9918 C.ar    
  17 C17           -1.5687     2.8997    -3.2468 C.3     
  18 H18           -0.3731     1.8569     0.5657 H       
  19 H19           -1.2015    -0.4687     0.3336 H       
  20 H20            0.2284    -0.8806    -0.6430 H       
  21 H21            0.2702     0.1185     2.2409 H       
  22 H22            0.5386    -1.5625     1.7207 H       
  23 H23            2.5023    -0.8376     0.3915 H       
  24 H24            1.9007     1.8999     1.6002 H       
  25 H25            3.3307     1.4880     0.6236 H       
  26 H26            1.8590     0.9008    -1.2837 H       
  27 H27            1.5906     2.5818    -0.7636 H       
  28 H28            4.4856    -1.1613     4.3244 H       
  29 H29            6.8773    -1.6794     4.0594 H       
  30 H30            7.9271    -1.5519     1.8368 H       
  31 H31            6.5890    -0.9050    -0.1250 H       
  32 H32            4.1942    -0.3965     0.1297 H       
  33 H33           -1.4936     3.9367    -3.5742 H       
  34 H34           -1.1827     2.2435    -4.0269 H       
  35 H35           -2.6127     2.6554    -3.0503 H       
@<TRIPOS>BOND
   1    1    2 1
   2    1    6 1
   3    1    7 1
   4    1   18 1
   5    2    3 1
   6    2   19 1
   7    2   20 1
   8    3    4 1
   9    3   21 1
  10    3   22 1
  11    4    5 1
  12    4   10 1
  13    4   23 1
  14    5    6 1
  15    5   24 1
  16    5   25 1
  17    6   26 1
  18    6   27 1
  19    7    8 2
  20    7    9 1
  21    9   17 1
  22   10   11 1
  23   11   12 ar
  24   11   16 ar
  25   12   13 ar
  26   12   28 1
  27   13   14 ar
  28   13   29 1
  29   14   15 ar
  30   14   30 1
  31   15   16 ar
  32   15   31 1
  33   16   32 1
  34   17   33 1
  35   17   34 1
  36   17   35 1

#	End of record

