#	Name: ASD01901369
#	Creating user name:	WinNT
#	Creation time:	15. 06. 2019 19:53

#	Modifying user name:	WinNT
#	Modification time:	15. 06. 2019 19:53

#	Program:	/corina/corina34_cracker 3.40 0067  02.08.2006

@<TRIPOS>MOLECULE
ASD01901369
  41   44    0    0    0
SMALL
NO_CHARGES


@<TRIPOS>ATOM
   1 C1            -0.0168     1.3913     0.0097 C.ar    
   2 C2             1.1728     2.0952     0.0021 C.ar    
   3 C3             2.3789     1.4184    -0.0130 C.ar    
   4 C4             2.4022     0.0355    -0.0207 C.ar    
   5 C5             1.2206    -0.6784    -0.0137 C.ar    
   6 C6             0.0021    -0.0041     0.0020 C.ar    
   7 C7            -1.2712    -0.7665     0.0106 C.2     
   8 N8            -3.1798    -1.5365    -1.1465 N.2     
   9 C9            -2.0560    -0.8625    -1.1592 C.2     
  10 C10           -1.6979    -1.3902     1.1495 C.2     
  11 N11           -2.8724    -2.0822     1.1229 N.pl3   
  12 C12           -3.6090    -2.1473    -0.0318 C.2     
  13 C13           -3.5494    -2.7956     2.0752 C.2     
  14 C14           -4.6683    -3.2743     1.4912 C.2     
  15 N15           -4.6906    -2.8718     0.2171 N.2     
  16 C16           -5.7182    -4.1203     2.1643 C.3     
  17 O17           -5.3492    -4.3427     3.5268 O.3     
  18 C18           -6.1955    -5.0933     4.2808 C.ar    
  19 C19           -7.3537    -5.6095     3.7186 C.ar    
  20 C20           -5.8987    -5.3484     5.6115 C.ar    
  21 C21           -6.7594    -6.1117     6.3765 C.ar    
  22 C22           -7.9175    -6.6224     5.8153 C.ar    
  23 C23           -8.2126    -6.3725     4.4858 C.ar    
  24 F24           -8.7578    -7.3695     6.5642 F       
  25 F25           -1.1948     2.0526     0.0301 F       
  26 C26            3.6728     2.1908    -0.0217 C.3     
  27 H27            1.1605     3.1751     0.0077 H       
  28 H28            3.3472    -0.4872    -0.0325 H       
  29 H29            1.2411    -1.7581    -0.0204 H       
  30 H30           -1.7291    -0.3785    -2.0676 H       
  31 H31           -1.1136    -1.3360     2.0562 H       
  32 H32           -3.2455    -2.9469     3.1004 H       
  33 H33           -6.6783    -3.6055     2.1272 H       
  34 H34           -5.7990    -5.0774     1.6489 H       
  35 H35           -7.5841    -5.4147     2.6816 H       
  36 H36           -4.9951    -4.9508     6.0493 H       
  37 H37           -6.5285    -6.3105     7.4126 H       
  38 H38           -9.1144    -6.7746     4.0483 H       
  39 H39            3.9948     2.3719     1.0038 H       
  40 H40            4.4359     1.6155    -0.5459 H       
  41 H41            3.5237     3.1438    -0.5294 H       
@<TRIPOS>BOND
   1    1    6 ar
   2    1    2 ar
   3    1   25 1
   4    2    3 ar
   5    2   27 1
   6    3    4 ar
   7    3   26 1
   8    4    5 ar
   9    4   28 1
  10    5    6 ar
  11    5   29 1
  12    6    7 1
  13    7   10 2
  14    7    9 1
  15    8    9 2
  16    8   12 1
  17    9   30 1
  18   10   11 1
  19   10   31 1
  20   11   13 1
  21   11   12 1
  22   12   15 2
  23   13   14 2
  24   13   32 1
  25   14   15 1
  26   14   16 1
  27   16   17 1
  28   16   33 1
  29   16   34 1
  30   17   18 1
  31   18   20 ar
  32   18   19 ar
  33   19   23 ar
  34   19   35 1
  35   20   21 ar
  36   20   36 1
  37   21   22 ar
  38   21   37 1
  39   22   23 ar
  40   22   24 1
  41   23   38 1
  42   26   39 1
  43   26   40 1
  44   26   41 1

#	End of record

