#	Name: ASD01140368
#	Creating user name:	WinNT
#	Creation time:	15. 06. 2019 19:00

#	Modifying user name:	WinNT
#	Modification time:	15. 06. 2019 19:00

#	Program:	/corina/corina34_cracker 3.40 0067  02.08.2006

@<TRIPOS>MOLECULE
ASD01140368
  45   49    0    0    0
SMALL
NO_CHARGES


@<TRIPOS>ATOM
   1 S1            -0.0211     1.7052     0.0114 S.3     
   2 C2             0.0021    -0.0041     0.0020 C.2     
   3 N3             1.2235    -0.4378    -0.0120 N.2     
   4 C4             2.1811     0.4664    -0.0163 C.2     
   5 C5             1.7403     1.7409    -0.0052 C.2     
   6 N6             2.5112     6.6976     0.0102 N.pl3   
   7 C7             3.6792     7.4117     0.0023 C.2     
   8 C8             4.7281     6.5737    -0.0116 C.2     
   9 C9             4.1893     5.2117    -0.0127 C.ar    
  10 C10            4.7713     3.9405    -0.0241 C.ar    
  11 C11            3.9811     2.8299    -0.0221 C.ar    
  12 C12            2.5852     2.9532    -0.0077 C.ar    
  13 C13            1.9909     4.2112     0.0038 C.ar    
  14 C14            2.7883     5.3480     0.0013 C.ar    
  15 O15           -1.0994    -0.7931     0.0090 O.3     
  16 C16           -1.8744    -4.4222     0.5840 C.3     
  17 C17           -2.0383    -2.9008     0.7294 C.3     
  18 C18           -0.8854    -2.2060    -0.0008 C.3     
  19 C19           -0.8172    -2.7008    -1.4484 C.3     
  20 C20           -0.7361    -4.2358    -1.4461 C.3     
  21 C21            0.3456    -4.6507    -0.4223 C.3     
  22 C22           -0.4066    -4.7739     0.9192 C.3     
  23 N23           -2.0060    -4.7435    -0.8621 N.3     
  24 C24           -2.1390    -6.1917    -1.0697 C.3     
  25 H25            3.2299     0.2091    -0.0273 H       
  26 H26            1.6216     7.0840     0.0241 H       
  27 H27            3.7468     8.4896     0.0063 H       
  28 H28            5.7718     6.8514    -0.0206 H       
  29 H29            5.8464     3.8386    -0.0352 H       
  30 H30            4.4333     1.8492    -0.0313 H       
  31 H31            0.9148     4.3030     0.0141 H       
  32 H32           -2.5820    -4.9725     1.2041 H       
  33 H33           -2.9871    -2.5923     0.2905 H       
  34 H34           -2.0174    -2.6306     1.7852 H       
  35 H35            0.0533    -2.4340     0.5041 H       
  36 H36           -1.7112    -2.3833    -1.9852 H       
  37 H37            0.0677    -2.2892    -1.9336 H       
  38 H38           -0.5388    -4.6379    -2.4399 H       
  39 H39            0.7838    -5.6090    -0.7008 H       
  40 H40            1.1180    -3.8846    -0.3550 H       
  41 H41           -0.0040    -4.0684     1.6460 H       
  42 H42           -0.3382    -5.7928     1.3002 H       
  43 H43           -3.0258    -6.5534    -0.5492 H       
  44 H44           -2.2336    -6.3988    -2.1356 H       
  45 H45           -1.2563    -6.6974    -0.6782 H       
@<TRIPOS>BOND
   1    1    2 1
   2    1    5 1
   3    2    3 2
   4    2   15 1
   5    3    4 1
   6    4    5 2
   7    4   25 1
   8    5   12 1
   9    6    7 1
  10    6   14 1
  11    6   26 1
  12    7    8 2
  13    7   27 1
  14    8    9 1
  15    8   28 1
  16    9   10 ar
  17    9   14 ar
  18   10   11 ar
  19   10   29 1
  20   11   12 ar
  21   11   30 1
  22   12   13 ar
  23   13   14 ar
  24   13   31 1
  25   15   18 1
  26   16   17 1
  27   16   22 1
  28   16   23 1
  29   16   32 1
  30   17   18 1
  31   17   33 1
  32   17   34 1
  33   18   19 1
  34   18   35 1
  35   19   20 1
  36   19   36 1
  37   19   37 1
  38   20   21 1
  39   20   23 1
  40   20   38 1
  41   21   22 1
  42   21   39 1
  43   21   40 1
  44   22   41 1
  45   22   42 1
  46   23   24 1
  47   24   43 1
  48   24   44 1
  49   24   45 1

#	End of record

