#	Name: ASD01940457
#	Creating user name:	WinNT
#	Creation time:	15. 06. 2019 20:12

#	Modifying user name:	WinNT
#	Modification time:	15. 06. 2019 20:12

#	Program:	/corina/corina34_cracker 3.40 0067  02.08.2006

@<TRIPOS>MOLECULE
ASD01940457
  29   30    0    0    0
SMALL
NO_CHARGES


@<TRIPOS>ATOM
   1 S1            -0.0209     1.6915     0.0113 S.3     
   2 N2             0.0021    -0.0041     0.0020 N.2     
   3 C3             1.2303    -0.3945    -0.0118 C.2     
   4 C4             2.2502     0.5714    -0.0164 C.ar    
   5 C5             1.7349     1.8830    -0.0044 C.ar    
   6 C6             2.5751     2.9858    -0.0065 C.ar    
   7 C7             3.9576     2.7950    -0.0207 C.ar    
   8 C8             4.4767     1.4899    -0.0327 C.ar    
   9 C9             3.6571     0.4109    -0.0311 C.ar    
  10 C10            4.8664     3.9549    -0.0236 C.2     
  11 O11            4.4129     5.0823    -0.0137 O.2     
  12 O12            6.2006     3.7655    -0.0374 O.3     
  13 F13            2.0599     4.2347     0.0047 F       
  14 C14            7.0352     4.9537    -0.0395 C.3     
  15 C15            6.7501     5.7794     1.2167 C.3     
  16 C16            8.5086     4.5420    -0.0557 C.3     
  17 C17            6.7261     5.7918    -1.2816 C.3     
  18 H18            1.4714    -1.4472    -0.0194 H       
  19 H19            5.5468     1.3440    -0.0437 H       
  20 H20            4.0813    -0.5822    -0.0401 H       
  21 H21            6.9703     5.1823     2.1016 H       
  22 H22            7.3765     6.6713     1.2151 H       
  23 H23            5.7003     6.0726     1.2282 H       
  24 H24            8.7117     3.9538    -0.9506 H       
  25 H25            9.1351     5.4340    -0.0572 H       
  26 H26            8.7288     3.9450     0.8293 H       
  27 H27            5.6764     6.0851    -1.2701 H       
  28 H28            7.3526     6.6838    -1.2832 H       
  29 H29            6.9292     5.2036    -2.1766 H       
@<TRIPOS>BOND
   1    1    2 1
   2    1    5 1
   3    2    3 2
   4    3    4 1
   5    3   18 1
   6    4    5 ar
   7    4    9 ar
   8    5    6 ar
   9    6    7 ar
  10    6   13 1
  11    7    8 ar
  12    7   10 1
  13    8    9 ar
  14    8   19 1
  15    9   20 1
  16   10   11 2
  17   10   12 1
  18   12   14 1
  19   14   15 1
  20   14   17 1
  21   14   16 1
  22   15   21 1
  23   15   22 1
  24   15   23 1
  25   16   24 1
  26   16   25 1
  27   16   26 1
  28   17   27 1
  29   17   28 1
  30   17   29 1

#	End of record

