#	Name: ASD02039284
#	Creating user name:	WinNT
#	Creation time:	15. 06. 2019 20:18

#	Modifying user name:	WinNT
#	Modification time:	15. 06. 2019 20:18

#	Program:	/corina/corina34_cracker 3.40 0067  02.08.2006

@<TRIPOS>MOLECULE
ASD02039284
  47   49    0    0    0
SMALL
NO_CHARGES


@<TRIPOS>ATOM
   1 C1             0.1357     1.1849    -0.3166 C.ar    
   2 C2             0.5176    -0.0930     0.0498 C.ar    
   3 C3            -0.3865    -1.1373    -0.0187 C.ar    
   4 C4            -1.6785    -0.9082    -0.4539 C.ar    
   5 C5            -2.0682     0.3798    -0.8241 C.ar    
   6 C6            -1.1531     1.4273    -0.7474 C.ar    
   7 C7            -3.4531     0.6334    -1.2922 C.ar    
   8 C8            -4.2059     1.6705    -0.7458 C.ar    
   9 N9            -5.4358     1.8979    -1.1595 N.ar    
  10 C10           -6.0022     1.1636    -2.0971 C.ar    
  11 C11           -5.3202     0.1134    -2.6900 C.ar    
  12 C12           -4.0209    -0.1606    -2.2921 C.ar    
  13 C13            1.1277     2.3168    -0.2393 C.3     
  14 N14            1.9438     2.3347    -1.4558 N.am    
  15 C15            1.4503     3.0089    -2.6592 C.3     
  16 C16            3.1488     1.7310    -1.4678 C.2     
  17 C17            3.6004     0.9645    -0.2935 C.2     
  18 C18            4.7332     0.2090    -0.2107 C.2     
  19 C19            2.4332     4.1081    -3.0674 C.3     
  20 N20            2.9680     0.8860     0.9052 N.2     
  21 C21            3.6607     0.1197     1.6972 C.2     
  22 N22            4.7637    -0.3181     1.0359 N.pl3   
  23 O23            3.8633     1.8190    -2.4481 O.2     
  24 C24            5.7998    -1.2026     1.5748 C.3     
  25 F25           -2.5615    -1.9285    -0.5211 F       
  26 C26            1.3203     1.9931    -3.7958 C.3     
  27 F27           -5.9126    -0.6315    -3.6489 F       
  28 H28            1.5260    -0.2762     0.3903 H       
  29 H29           -0.0827    -2.1333     0.2680 H       
  30 H30           -1.4493     2.4260    -1.0323 H       
  31 H31           -3.7771     2.2940     0.0248 H       
  32 H32           -7.0129     1.3840    -2.4072 H       
  33 H33           -3.4649    -0.9727    -2.7369 H       
  34 H34            0.5934     3.2623    -0.1463 H       
  35 H35            1.7720     2.1766     0.6285 H       
  36 H36            0.4754     3.4512    -2.4539 H       
  37 H37            5.4654     0.0596    -0.9904 H       
  38 H38            3.4239     3.6757    -3.2078 H       
  39 H39            2.1007     4.5650    -3.9994 H       
  40 H40            2.4753     4.8665    -2.2857 H       
  41 H41            3.4020    -0.1259     2.7166 H       
  42 H42            5.5317    -2.2401     1.3751 H       
  43 H43            6.7542    -0.9760     1.0996 H       
  44 H44            5.8843    -1.0498     2.6508 H       
  45 H45            0.5860     1.2350    -3.5234 H       
  46 H46            0.9967     2.5028    -4.7034 H       
  47 H47            2.2856     1.5178    -3.9705 H       
@<TRIPOS>BOND
   1    1    2 ar
   2    1   13 1
   3    1    6 ar
   4    2    3 ar
   5    2   28 1
   6    3    4 ar
   7    3   29 1
   8    4    5 ar
   9    4   25 1
  10    5    6 ar
  11    5    7 1
  12    6   30 1
  13    7    8 ar
  14    7   12 ar
  15    8    9 ar
  16    8   31 1
  17    9   10 ar
  18   10   11 ar
  19   10   32 1
  20   11   12 ar
  21   11   27 1
  22   12   33 1
  23   13   14 1
  24   13   34 1
  25   13   35 1
  26   14   15 1
  27   14   16 am
  28   15   26 1
  29   15   19 1
  30   15   36 1
  31   16   17 1
  32   16   23 2
  33   17   18 2
  34   17   20 1
  35   18   22 1
  36   18   37 1
  37   19   38 1
  38   19   39 1
  39   19   40 1
  40   20   21 2
  41   21   22 1
  42   21   41 1
  43   22   24 1
  44   24   42 1
  45   24   43 1
  46   24   44 1
  47   26   45 1
  48   26   46 1
  49   26   47 1

#	End of record

