#	Name: ASD00431001
#	Creating user name:	WinNT
#	Creation time:	15. 06. 2019 18:35

#	Modifying user name:	WinNT
#	Modification time:	15. 06. 2019 18:35

#	Program:	/corina/corina34_cracker 3.40 0067  02.08.2006

@<TRIPOS>MOLECULE
ASD00431001
  16   15    0    0    0
SMALL
NO_CHARGES


@<TRIPOS>ATOM
   1 C1            -0.0184     1.5028     0.0103 C.2     
   2 C2             0.0021    -0.0041     0.0020 C.3     
   3 C3             1.4295    -0.4870    -0.0142 C.2     
   4 O4             1.0191     2.1207     0.0037 O.2     
   5 O5             2.3371     0.3106    -0.0186 O.2     
   6 O6             1.6926    -1.8032    -0.0238 O.3     
   7 C7             3.0904    -2.1959    -0.0392 C.3     
   8 C8            -1.3335     2.2385     0.0205 C.3     
   9 H9            -0.4983    -0.3791     0.8948 H       
  10 H10           -0.5153    -0.3696    -0.8850 H       
  11 H11            3.5707    -1.7947    -0.9317 H       
  12 H12            3.5877    -1.8043     0.8481 H       
  13 H13            3.1622    -3.2835    -0.0458 H       
  14 H14           -2.1523     1.5190     0.0205 H       
  15 H15           -1.3956     2.8594     0.9142 H       
  16 H16           -1.4040     2.8691    -0.8657 H       
@<TRIPOS>BOND
   1    1    2 1
   2    1    4 2
   3    1    8 1
   4    2    3 1
   5    2    9 1
   6    2   10 1
   7    3    5 2
   8    3    6 1
   9    6    7 1
  10    7   11 1
  11    7   12 1
  12    7   13 1
  13    8   14 1
  14    8   15 1
  15    8   16 1

#	End of record

