#	Name: ASD01913872
#	Creating user name:	WinNT
#	Creation time:	15. 06. 2019 20:02

#	Modifying user name:	WinNT
#	Modification time:	15. 06. 2019 20:02

#	Program:	/corina/corina34_cracker 3.40 0067  02.08.2006

@<TRIPOS>MOLECULE
ASD01913872
  37   40    0    0    0
SMALL
NO_CHARGES


@<TRIPOS>ATOM
   1 C1            -0.0173     1.4278     0.0099 C.ar    
   2 C2             0.0021    -0.0041     0.0020 C.1     
   3 C3             0.0180    -1.1779    -0.0044 C.1     
   4 C4             0.0374    -2.6098    -0.0123 C.ar    
   5 C5            -1.1615    -3.3383    -0.0048 C.ar    
   6 C6             0.1561    -5.3344    -0.0280 C.ar    
   7 N7             1.2707    -4.6188    -0.0406 N.ar    
   8 C8             1.2502    -3.3023    -0.0334 C.ar    
   9 C9            -1.0910    -4.7169    -0.0128 C.ar    
  10 C10            1.1757     2.1548     0.0024 C.ar    
  11 N11            1.1569     3.4714     0.0092 N.ar    
  12 C12           -1.2336     2.1243     0.0194 C.ar    
  13 C13            0.0271     4.1524     0.0232 C.ar    
  14 C14           -1.1969     3.5069     0.0262 C.ar    
  15 N15            0.2332    -6.7251    -0.0369 N.am    
  16 C16           -0.6894    -7.6909    -0.1137 C.2     
  17 C17            0.3213    -8.7958    -0.0439 C.3     
  18 C18            1.3488    -7.6604     0.0275 C.3     
  19 O19           -1.8986    -7.6774    -0.2056 O.2     
  20 C20            0.5592    -9.5177    -1.3867 C.3     
  21 C21            2.0363    -9.1997    -1.7293 C.3     
  22 C22            2.1843    -7.7353    -1.2681 C.3     
  23 H23            0.2533    -9.4454     0.8287 H       
  24 H24            1.9321    -7.6146     0.9471 H       
  25 H25           -2.1159    -2.8331     0.0074 H       
  26 H26            2.1799    -2.7527    -0.0442 H       
  27 H27           -1.9937    -5.3098    -0.0070 H       
  28 H28            2.1210     1.6326    -0.0087 H       
  29 H29           -2.1751     1.5951     0.0209 H       
  30 H30            0.0580     5.2319     0.0283 H       
  31 H31           -2.1141     4.0770     0.0374 H       
  32 H32            0.4164   -10.5923    -1.2731 H       
  33 H33           -0.1047    -9.1225    -2.1556 H       
  34 H34            2.7105    -9.8539    -1.1764 H       
  35 H35            2.2103    -9.2817    -2.8022 H       
  36 H36            1.7876    -7.0558    -2.0224 H       
  37 H37            3.2287    -7.5053    -1.0574 H       
@<TRIPOS>BOND
   1    1    2 1
   2    1   10 ar
   3    1   12 ar
   4    2    3 3
   5    3    4 1
   6    4    5 ar
   7    4    8 ar
   8    5    9 ar
   9    5   25 1
  10    6    7 ar
  11    6   15 1
  12    6    9 ar
  13    7    8 ar
  14    8   26 1
  15    9   27 1
  16   10   11 ar
  17   10   28 1
  18   11   13 ar
  19   12   14 ar
  20   12   29 1
  21   13   14 ar
  22   13   30 1
  23   14   31 1
  24   15   16 am
  25   15   18 1
  26   16   17 1
  27   16   19 2
  28   17   18 1
  29   17   20 1
  30   17   23 1
  31   18   24 1
  32   18   22 1
  33   20   21 1
  34   20   32 1
  35   20   33 1
  36   21   22 1
  37   21   34 1
  38   21   35 1
  39   22   36 1
  40   22   37 1

#	End of record

