#	Name: ASD01816816
#	Creating user name:	WinNT
#	Creation time:	15. 06. 2019 19:36

#	Modifying user name:	WinNT
#	Modification time:	15. 06. 2019 19:36

#	Program:	/corina/corina34_cracker 3.40 0067  02.08.2006

@<TRIPOS>MOLECULE
ASD01816816
  48   51    0    0    0
SMALL
NO_CHARGES


@<TRIPOS>ATOM
   1 C1            -0.0315     1.3725     0.0432 C.ar    
   2 C2             0.0022    -0.0140     0.1704 C.ar    
   3 C3             1.1817    -0.6959     0.1013 C.ar    
   4 C4             2.3812     0.0083    -0.1010 C.ar    
   5 C5             2.3502     1.4216    -0.2311 C.ar    
   6 C6             1.1108     2.0890    -0.1538 C.ar    
   7 C7             3.6170    -0.6602    -0.1772 C.ar    
   8 C8             4.7435     0.0852    -0.3748 C.ar    
   9 C9             4.6453     1.4794    -0.4954 C.ar    
  10 N10            3.4824     2.0973    -0.4231 N.ar    
  11 C11            5.8768     2.2764    -0.7097 C.2     
  12 N12            5.8000     3.6167    -0.8277 N.am    
  13 O13            6.9553     1.7212    -0.7789 O.2     
  14 C14            7.0170     4.4043    -1.0395 C.3     
  15 C15            7.3508     4.4399    -2.5340 C.3     
  16 C16            6.7936     5.8362    -0.5433 C.3     
  17 C17            8.0417     6.6714    -0.8401 C.3     
  18 O18            8.3137     6.6372    -2.2426 O.3     
  19 C19            8.5774     5.3291    -2.7540 C.3     
  20 O20            6.5528     5.8213     0.8652 O.3     
  21 C21            3.6950    -2.1592    -0.0439 C.3     
  22 C22            5.1288    -2.6020    -0.1828 C.ar    
  23 C23            5.9383    -2.7098     0.9314 C.ar    
  24 C24            5.6501    -2.9117    -1.4304 C.ar    
  25 C25            6.9734    -3.3144    -1.5111 C.ar    
  26 C26            7.7258    -3.3937    -0.3522 C.ar    
  27 N27            7.1944    -3.0962     0.8184 N.ar    
  28 Cl28           9.3849    -3.8973    -0.4386 Cl      
  29 F29            1.1968    -2.0410     0.2271 F       
  30 F30            1.0558     3.4335    -0.2741 F       
  31 H31           -0.9790     1.8880     0.0971 H       
  32 H32           -0.9183    -0.5569     0.3262 H       
  33 H33            5.7078    -0.3972    -0.4376 H       
  34 H34            4.9390     4.0600    -0.7725 H       
  35 H35            7.8439     3.9521    -0.4919 H       
  36 H36            7.5656     3.4300    -2.8834 H       
  37 H37            6.5033     4.8451    -3.0870 H       
  38 H38            5.9348     6.2695    -1.0560 H       
  39 H39            7.8723     7.7019    -0.5278 H       
  40 H40            8.8918     6.2613    -0.2948 H       
  41 H41            9.4344     4.9014    -2.2338 H       
  42 H42            8.7939     5.3926    -3.8204 H       
  43 H43            6.4025     6.6966     1.2478 H       
  44 H44            3.3158    -2.4572     0.9336 H       
  45 H45            3.0936    -2.6252    -0.8244 H       
  46 H46            5.5381    -2.4746     1.9065 H       
  47 H47            5.0387    -2.8410    -2.3179 H       
  48 H48            7.4120    -3.5636    -2.4660 H       
@<TRIPOS>BOND
   1    1    2 ar
   2    1    6 ar
   3    1   31 1
   4    2    3 ar
   5    2   32 1
   6    3    4 ar
   7    3   29 1
   8    4    5 ar
   9    4    7 ar
  10    5    6 ar
  11    5   10 ar
  12    6   30 1
  13    7    8 ar
  14    7   21 1
  15    8    9 ar
  16    8   33 1
  17    9   10 ar
  18    9   11 1
  19   11   12 am
  20   11   13 2
  21   12   14 1
  22   12   34 1
  23   14   15 1
  24   14   16 1
  25   14   35 1
  26   15   19 1
  27   15   36 1
  28   15   37 1
  29   16   17 1
  30   16   20 1
  31   16   38 1
  32   17   18 1
  33   17   39 1
  34   17   40 1
  35   18   19 1
  36   19   41 1
  37   19   42 1
  38   20   43 1
  39   21   22 1
  40   21   44 1
  41   21   45 1
  42   22   23 ar
  43   22   24 ar
  44   23   27 ar
  45   23   46 1
  46   24   25 ar
  47   24   47 1
  48   25   26 ar
  49   25   48 1
  50   26   27 ar
  51   26   28 1

#	End of record

