#	Name: ASD09740086
#	Creating user name:	WinNT
#	Creation time:	15. 06. 2019 21:22

#	Modifying user name:	WinNT
#	Modification time:	15. 06. 2019 21:22

#	Program:	/corina/corina34_cracker 3.40 0067  02.08.2006

@<TRIPOS>MOLECULE
ASD09740086
  27   29    0    0    0
SMALL
NO_CHARGES


@<TRIPOS>ATOM
   1 O1            -0.0144     1.2085     0.0087 O.3     
   2 N2             0.0021    -0.0041     0.0020 N.2     
   3 C3             1.2410     1.6827    -0.0008 C.2     
   4 N4             2.0453     0.6366    -0.0141 N.2     
   5 C5             1.2345    -0.4419    -0.0121 C.2     
   6 C6             1.6625    -1.8640    -0.0234 C.ar    
   7 C7             1.6456     3.1049     0.0030 C.ar    
   8 C8             0.7216    -2.8964    -0.0200 C.ar    
   9 C9             3.0170    -2.2054    -0.0435 C.ar    
  10 C10            3.3714    -3.5395    -0.0534 C.ar    
  11 N11            2.4512    -4.4843    -0.0441 N.ar    
  12 C12            1.1625    -4.2045    -0.0308 C.ar    
  13 C13            2.9995     3.4470    -0.0086 C.ar    
  14 C14            3.3797     4.7766    -0.0056 C.ar    
  15 C15            2.4226     5.7749     0.0094 C.ar    
  16 C16            1.0655     5.4445     0.0211 C.ar    
  17 C17            0.6769     4.1057     0.0123 C.ar    
  18 F18            4.6909     5.1016    -0.0168 F       
  19 C19            0.0753     6.4789     0.0371 C.1     
  20 N20           -0.7101     7.2995     0.0499 N.1     
  21 H21           -0.3353    -2.6745    -0.0088 H       
  22 H22            3.7757    -1.4368    -0.0516 H       
  23 H23            4.4160    -3.8132    -0.0693 H       
  24 H24            0.4425    -5.0095    -0.0235 H       
  25 H25            3.7512     2.6716    -0.0196 H       
  26 H26            2.7250     6.8117     0.0124 H       
  27 H27           -0.3712     3.8455     0.0213 H       
@<TRIPOS>BOND
   1    1    2 1
   2    1    3 1
   3    2    5 2
   4    3    4 2
   5    3    7 1
   6    4    5 1
   7    5    6 1
   8    6    8 ar
   9    6    9 ar
  10    7   13 ar
  11    7   17 ar
  12    8   12 ar
  13    8   21 1
  14    9   10 ar
  15    9   22 1
  16   10   11 ar
  17   10   23 1
  18   11   12 ar
  19   12   24 1
  20   13   14 ar
  21   13   25 1
  22   14   15 ar
  23   14   18 1
  24   15   16 ar
  25   15   26 1
  26   16   17 ar
  27   16   19 1
  28   17   27 1
  29   19   20 3

#	End of record

