#	Name: ASD01900123
#	Creating user name:	WinNT
#	Creation time:	15. 06. 2019 19:51

#	Modifying user name:	WinNT
#	Modification time:	15. 06. 2019 19:51

#	Program:	/corina/corina34_cracker 3.40 0067  02.08.2006

@<TRIPOS>MOLECULE
ASD01900123
  61   64    0    0    0
SMALL
NO_CHARGES


@<TRIPOS>ATOM
   1 C1            -0.0583     1.5214    -0.7006 C.ar    
   2 C2            -0.1790     0.1730    -0.4458 C.ar    
   3 C3             0.7749    -0.4881     0.3174 C.ar    
   4 C4             1.8558     0.2016     0.8390 C.ar    
   5 C5             1.9863     1.5577     0.5961 C.ar    
   6 C6             1.0311     2.2273    -0.1890 C.ar    
   7 N7             3.0488     2.2884     1.1222 N.pl3   
   8 C8             3.4650     3.5059     0.4221 C.3     
   9 N9             2.3423     4.2841    -0.0957 N.am    
  10 C10            1.1952     3.6668    -0.4517 C.2     
  11 C11            2.4554     5.6743    -0.2220 C.ar    
  12 C12            2.0554     6.5012     0.8193 C.ar    
  13 C13            2.1676     7.8718     0.6942 C.ar    
  14 C14            2.6798     8.4226    -0.4714 C.ar    
  15 C15            3.0792     7.5972    -1.5123 C.ar    
  16 C16            2.9729     6.2262    -1.3864 C.ar    
  17 O17            0.3025     4.2963    -0.9867 O.2     
  18 O18            2.7900     9.7724    -0.5939 O.3     
  19 C19            4.4848     4.3428     1.2069 C.3     
  20 C20            3.3259    10.2708    -1.8212 C.3     
  21 N21            5.1831     4.5179    -0.0867 N.3     
  22 C22            4.5795     3.2700    -0.6062 C.3     
  23 C23            6.6358     4.3723     0.0754 C.3     
  24 C24            7.3015     4.4438    -1.2748 C.ar    
  25 C25            7.7874     3.2935    -1.8677 C.ar    
  26 C26            8.3985     3.3590    -3.1058 C.ar    
  27 C27            8.5241     4.5748    -3.7519 C.ar    
  28 C28            8.0383     5.7254    -3.1604 C.ar    
  29 C29            7.4214     5.6597    -1.9235 C.ar    
  30 F30            0.6468    -1.8123     0.5524 F       
  31 C31            3.3727    11.7993    -1.7738 C.3     
  32 O32            4.2924    12.2165    -0.7628 O.3     
  33 C33            4.4119    13.6348    -0.6352 C.3     
  34 Cl34           6.8045     7.1035    -1.1829 Cl      
  35 H35           -0.8014     2.0291    -1.2977 H       
  36 H36           -1.0218    -0.3741    -0.8420 H       
  37 H37            2.5940    -0.3163     1.4334 H       
  38 H38            3.5007     1.9991     1.9304 H       
  39 H39            1.6562     6.0725     1.7267 H       
  40 H40            1.8562     8.5151     1.5039 H       
  41 H41            3.4776     8.0267    -2.4196 H       
  42 H42            3.2880     5.5834    -2.1951 H       
  43 H43            4.0747     5.2671     1.6136 H       
  44 H44            5.0533     3.7695     1.9391 H       
  45 H45            4.3337     9.8806    -1.9627 H       
  46 H46            2.6933     9.9522    -2.6498 H       
  47 H47            5.1761     2.3788    -0.4110 H       
  48 H48            4.2449     3.3413    -1.6411 H       
  49 H49            7.0129     5.1748     0.7093 H       
  50 H50            6.8552     3.4102     0.5381 H       
  51 H51            7.6899     2.3435    -1.3633 H       
  52 H52            8.7783     2.4600    -3.5685 H       
  53 H53            9.0022     4.6255    -4.7190 H       
  54 H54            8.1368     6.6752    -3.6650 H       
  55 H55            3.6974    12.1831    -2.7410 H       
  56 H56            2.3800    12.1863    -1.5440 H       
  57 H57            4.7581    14.0566    -1.5787 H       
  58 H58            3.4407    14.0599    -0.3817 H       
  59 H59            5.1279    13.8697     0.1523 H       
  60 F60           14.0022    19.0599     6.9391 F       
  61 H61           14.0022    20.0199     6.9391 H       
@<TRIPOS>BOND
   1    1    2 ar
   2    1    6 ar
   3    1   35 1
   4    2    3 ar
   5    2   36 1
   6    3    4 ar
   7    3   30 1
   8    4    5 ar
   9    4   37 1
  10    5    7 1
  11    5    6 ar
  12    6   10 1
  13    7    8 1
  14    7   38 1
  15    8    9 1
  16    8   19 1
  17    8   22 1
  18    9   10 am
  19    9   11 1
  20   10   17 2
  21   11   12 ar
  22   11   16 ar
  23   12   13 ar
  24   12   39 1
  25   13   14 ar
  26   13   40 1
  27   14   15 ar
  28   14   18 1
  29   15   16 ar
  30   15   41 1
  31   16   42 1
  32   18   20 1
  33   19   21 1
  34   19   43 1
  35   19   44 1
  36   20   31 1
  37   20   45 1
  38   20   46 1
  39   21   23 1
  40   21   22 1
  41   22   47 1
  42   22   48 1
  43   23   24 1
  44   23   49 1
  45   23   50 1
  46   24   25 ar
  47   24   29 ar
  48   25   26 ar
  49   25   51 1
  50   26   27 ar
  51   26   52 1
  52   27   28 ar
  53   27   53 1
  54   28   29 ar
  55   28   54 1
  56   29   34 1
  57   31   32 1
  58   31   55 1
  59   31   56 1
  60   32   33 1
  61   33   57 1
  62   33   58 1
  63   33   59 1
  64   60   61 1

#	End of record

