#	Name: ASD03091623
#	Creating user name:	WinNT
#	Creation time:	15. 06. 2019 20:31

#	Modifying user name:	WinNT
#	Modification time:	15. 06. 2019 20:31

#	Program:	/corina/corina34_cracker 3.40 0067  02.08.2006

@<TRIPOS>MOLECULE
ASD03091623
  18   19    0    0    0
SMALL
NO_CHARGES


@<TRIPOS>ATOM
   1 C1            -0.0161     1.3335     0.0094 C.2     
   2 C2             0.0021    -0.0041     0.0020 C.2     
   3 C3             1.2765    -0.5926    -0.0133 C.ar    
   4 C4             2.3070     0.3564    -0.0181 C.ar    
   5 S5             1.6171     1.9754    -0.0028 S.3     
   6 C6             3.6409    -0.0638    -0.0326 C.ar    
   7 C7             3.9432    -1.4043    -0.0423 C.ar    
   8 C8             2.9248    -2.3504    -0.0377 C.ar    
   9 C9             1.6202    -1.9657    -0.0240 C.ar    
  10 C10           -1.2351     2.1521     0.0198 C.2     
  11 O11           -2.3267     1.6169     0.0223 O.2     
  12 O12           -1.1437     3.4974     0.0267 O.3     
  13 Br13           3.3575    -4.1912    -0.0518 Br      
  14 H14           -0.9037    -0.5922     0.0079 H       
  15 H15            4.4357     0.6674    -0.0367 H       
  16 H16            4.9749    -1.7236    -0.0539 H       
  17 H17            0.8408    -2.7134    -0.0206 H       
  18 H18           -1.9736     3.9937     0.0335 H       
@<TRIPOS>BOND
   1    1    2 2
   2    1    5 1
   3    1   10 1
   4    2    3 1
   5    2   14 1
   6    3    4 ar
   7    3    9 ar
   8    4    5 1
   9    4    6 ar
  10    6    7 ar
  11    6   15 1
  12    7    8 ar
  13    7   16 1
  14    8    9 ar
  15    8   13 1
  16    9   17 1
  17   10   11 2
  18   10   12 1
  19   12   18 1

#	End of record

