#	Name: ASD03331513
#	Creating user name:	WinNT
#	Creation time:	15. 06. 2019 20:39

#	Modifying user name:	WinNT
#	Modification time:	15. 06. 2019 20:39

#	Program:	/corina/corina34_cracker 3.40 0067  02.08.2006

@<TRIPOS>MOLECULE
ASD03331513
  68   71    0    0    0
SMALL
NO_CHARGES


@<TRIPOS>ATOM
   1 N1            -0.6068     1.4718    -1.0008 N.am    
   2 C2             0.4105     2.1484    -1.8168 C.3     
   3 C3             0.2256     1.7329    -3.2797 C.3     
   4 C4             0.2533     0.2060    -3.3796 C.3     
   5 C5            -0.8989    -0.3814    -2.5613 C.3     
   6 C6            -0.7267     0.0102    -1.0903 C.3     
   7 C7             0.1057    -0.2055    -4.8218 C.2     
   8 O8            -0.0101     0.6389    -5.6845 O.2     
   9 N9             0.1025    -1.5120    -5.1528 N.am    
  10 C10           -0.0409    -1.9121    -6.5547 C.3     
  11 C11           -0.0133    -3.4386    -6.6549 C.3     
  12 O12           -1.1553    -3.9804    -5.9884 O.3     
  13 C13           -1.4111     2.1779    -0.1817 C.2     
  14 O14           -2.3163     1.6212     0.4100 O.2     
  15 N15           -1.5572     5.7936     0.2469 N.pl3   
  16 C16           -2.1686     4.5941     0.0862 C.2     
  17 C17           -1.1938     3.6237    -0.0029 C.2     
  18 C18            0.0589     4.2811     0.1107 C.2     
  19 C19           -0.1950     5.6060     0.2623 C.2     
  20 C20           -3.6561     4.3622     0.0171 C.3     
  21 C21           -4.1197     4.4552    -1.4380 C.3     
  22 C22           -5.6298     4.2197    -1.5081 C.3     
  23 O23           -6.0628     4.3065    -2.8672 O.3     
  24 C24           -2.2091     7.0279     0.3714 C.ar    
  25 C25           -2.1899     7.7053     1.5832 C.ar    
  26 C26           -2.8327     8.9218     1.7032 C.ar    
  27 C27           -3.4958     9.4655     0.6170 C.ar    
  28 C28           -3.5167     8.7920    -0.5917 C.ar    
  29 C29           -2.8702     7.5782    -0.7185 C.ar    
  30 Cl30          -4.3033    10.9945     0.7712 Cl      
  31 C31            0.8219     6.6685     0.4174 C.ar    
  32 C32            1.8600     6.5160     1.3393 C.ar    
  33 C33            2.8062     7.5112     1.4795 C.ar    
  34 C34            2.7269     8.6593     0.7078 C.ar    
  35 C35            1.6987     8.8153    -0.2077 C.ar    
  36 C36            0.7510     7.8243    -0.3607 C.ar    
  37 F37            3.6554     9.6305     0.8488 F       
  38 Cl38           1.9599     5.0782     2.3070 Cl      
  39 H39            0.2929     3.2282    -1.7260 H       
  40 H40            1.4044     1.8572    -1.4771 H       
  41 H41           -0.7319     2.1041    -3.6451 H       
  42 H42            1.0322     2.1516    -3.8815 H       
  43 H43            1.2013    -0.1661    -2.9911 H       
  44 H44           -1.8458     0.0097    -2.9334 H       
  45 H45           -0.8926    -1.4676    -2.6518 H       
  46 H46            0.1745    -0.4555    -0.6913 H       
  47 H47           -1.5947    -0.3209    -0.5201 H       
  48 H48            0.1952    -2.1874    -4.4627 H       
  49 H49           -0.9885    -1.5396    -6.9438 H       
  50 H50            0.7803    -1.4948    -7.1375 H       
  51 H51           -0.0306    -3.7342    -7.7039 H       
  52 H52            0.8948    -3.8171    -6.1856 H       
  53 H53           -1.2031    -4.9459    -6.0119 H       
  54 H54            1.0324     3.8145     0.0818 H       
  55 H55           -3.8881     3.3722     0.4098 H       
  56 H56           -4.1697     5.1182     0.6111 H       
  57 H57           -3.8877     5.4451    -1.8306 H       
  58 H58           -3.6061     3.6992    -2.0319 H       
  59 H59           -5.8618     3.2297    -1.1155 H       
  60 H60           -6.1434     4.9757    -0.9142 H       
  61 H61           -7.0122     4.1672    -2.9872 H       
  62 H62           -1.6732     7.2811     2.4314 H       
  63 H63           -2.8181     9.4491     2.6456 H       
  64 H64           -4.0355     9.2180    -1.4378 H       
  65 H65           -2.8831     7.0551    -1.6633 H       
  66 H66            3.6093     7.3950     2.1922 H       
  67 H67            1.6417     9.7124    -0.8063 H       
  68 H68           -0.0471     7.9453    -1.0782 H       
@<TRIPOS>BOND
   1    1    2 1
   2    1    6 1
   3    1   13 am
   4    2    3 1
   5    2   39 1
   6    2   40 1
   7    3    4 1
   8    3   41 1
   9    3   42 1
  10    4    5 1
  11    4    7 1
  12    4   43 1
  13    5    6 1
  14    5   44 1
  15    5   45 1
  16    6   46 1
  17    6   47 1
  18    7    8 2
  19    7    9 am
  20    9   10 1
  21    9   48 1
  22   10   11 1
  23   10   49 1
  24   10   50 1
  25   11   12 1
  26   11   51 1
  27   11   52 1
  28   12   53 1
  29   13   14 2
  30   13   17 1
  31   15   16 1
  32   15   19 1
  33   15   24 1
  34   16   17 2
  35   16   20 1
  36   17   18 1
  37   18   19 2
  38   18   54 1
  39   19   31 1
  40   20   21 1
  41   20   55 1
  42   20   56 1
  43   21   22 1
  44   21   57 1
  45   21   58 1
  46   22   23 1
  47   22   59 1
  48   22   60 1
  49   23   61 1
  50   24   25 ar
  51   24   29 ar
  52   25   26 ar
  53   25   62 1
  54   26   27 ar
  55   26   63 1
  56   27   28 ar
  57   27   30 1
  58   28   29 ar
  59   28   64 1
  60   29   65 1
  61   31   32 ar
  62   31   36 ar
  63   32   33 ar
  64   32   38 1
  65   33   34 ar
  66   33   66 1
  67   34   35 ar
  68   34   37 1
  69   35   36 ar
  70   35   67 1
  71   36   68 1

#	End of record

