#	Name: ASD01881767
#	Creating user name:	WinNT
#	Creation time:	15. 06. 2019 19:43

#	Modifying user name:	WinNT
#	Modification time:	15. 06. 2019 19:43

#	Program:	/corina/corina34_cracker 3.40 0067  02.08.2006

@<TRIPOS>MOLECULE
ASD01881767
  40   42    0    0    0
SMALL
NO_CHARGES


@<TRIPOS>ATOM
   1 C1            -0.0184     1.5028     0.0103 C.2     
   2 C2             0.0021    -0.0041     0.0020 C.3     
   3 C3             1.4513    -0.4944    -0.0145 C.3     
   4 C4             1.4720    -2.0242    -0.0229 C.3     
   5 O5             1.0197     2.1211     0.0037 O.2     
   6 O6            -1.1898     2.1580     0.0194 O.3     
   7 C7            -1.1335     3.6089     0.0270 C.3     
   8 O8            -0.7728     4.0785    -1.2735 O.3     
   9 N9            -4.4571     3.9934    -5.3260 N.pl3   
  10 N10           -3.6160     4.5324    -6.3108 N.2     
  11 N11           -2.4579     4.7677    -5.8028 N.2     
  12 C12           -2.4381     4.4199    -4.5006 C.ar    
  13 C13           -3.7103     3.9204    -4.1723 C.ar    
  14 C14           -1.4462     4.4699    -3.5114 C.ar    
  15 C15           -1.7329     4.0308    -2.2354 C.ar    
  16 C16           -2.9984     3.5387    -1.9252 C.ar    
  17 C17           -3.9748     3.4827    -2.8794 C.ar    
  18 C18           -5.8565     3.5930    -5.4914 C.3     
  19 C19           -5.9202     2.1240    -5.9143 C.3     
  20 C20           -7.3037     1.4802    -6.0258 C.3     
  21 C21           -6.5092     1.8101    -7.2911 C.3     
  22 Br22           0.2749     5.1362    -3.9235 Br      
  23 H23           -0.4983    -0.3791     0.8948 H       
  24 H24           -0.5153    -0.3696    -0.8850 H       
  25 H25            1.9516    -0.1193    -0.9073 H       
  26 H26            1.9686    -0.1289     0.8726 H       
  27 H27            0.9717    -2.3993     0.8699 H       
  28 H28            0.9547    -2.3897    -0.9099 H       
  29 H29            2.5045    -2.3735    -0.0346 H       
  30 H30           -2.1100     4.0090     0.2998 H       
  31 H31           -0.3898     3.9399     0.7520 H       
  32 H32           -3.2094     3.1979    -0.9223 H       
  33 H33           -4.9529     3.0992    -2.6290 H       
  34 H34           -6.3855     3.7225    -4.5473 H       
  35 H35           -6.3235     4.2122    -6.2574 H       
  36 H36           -5.1004     1.4976    -5.5626 H       
  37 H37           -7.3940     0.4302    -5.7477 H       
  38 H38           -8.1685     2.1033    -5.7978 H       
  39 H39           -6.8514     2.6501    -7.8955 H       
  40 H40           -6.0769     0.9770    -7.8454 H       
@<TRIPOS>BOND
   1    1    2 1
   2    1    5 2
   3    1    6 1
   4    2    3 1
   5    2   23 1
   6    2   24 1
   7    3    4 1
   8    3   25 1
   9    3   26 1
  10    4   27 1
  11    4   28 1
  12    4   29 1
  13    6    7 1
  14    7    8 1
  15    7   30 1
  16    7   31 1
  17    8   15 1
  18    9   10 1
  19    9   13 1
  20    9   18 1
  21   10   11 2
  22   11   12 1
  23   12   13 ar
  24   12   14 ar
  25   13   17 ar
  26   14   15 ar
  27   14   22 1
  28   15   16 ar
  29   16   17 ar
  30   16   32 1
  31   17   33 1
  32   18   19 1
  33   18   34 1
  34   18   35 1
  35   19   20 1
  36   19   21 1
  37   19   36 1
  38   20   21 1
  39   20   37 1
  40   20   38 1
  41   21   39 1
  42   21   40 1

#	End of record

