#	Name: ASD01814690
#	Creating user name:	WinNT
#	Creation time:	15. 06. 2019 19:32

#	Modifying user name:	WinNT
#	Modification time:	15. 06. 2019 19:32

#	Program:	/corina/corina34_cracker 3.40 0067  02.08.2006

@<TRIPOS>MOLECULE
ASD01814690
  42   45    0    0    0
SMALL
NO_CHARGES


@<TRIPOS>ATOM
   1 N1            -0.8816     2.2849     2.5106 N.2     
   2 C2            -1.1231     1.2637     3.2984 C.2     
   3 C3            -0.2235     0.9329     4.3234 C.2     
   4 C4             0.8971     1.6776     4.4927 C.2     
   5 N5             1.1240     2.7352     3.6586 N.pl3   
   6 C6             0.2220     3.0276     2.6684 C.2     
   7 N7             2.1598     3.6717     3.5785 N.2     
   8 C8             1.9084     4.5019     2.5864 C.2     
   9 C9             0.7123     4.1379     1.9912 C.2     
  10 C10            2.4598     5.7078     1.8662 C.3     
  11 N11            1.5216     6.0553     0.7943 N.am    
  12 C12            0.4229     5.0860     0.8561 C.3     
  13 C13            1.6455     7.0723    -0.0813 C.2     
  14 C14            2.7537     8.0360     0.0594 C.ar    
  15 C15            2.5029     9.4135    -0.0079 C.ar    
  16 C16            4.0580     7.5812     0.2660 C.ar    
  17 C17            5.0890     8.4867     0.3966 C.ar    
  18 C18            4.8378     9.8468     0.3238 C.ar    
  19 C19            3.5521    10.3102     0.1256 C.ar    
  20 O20            0.8439     7.1956    -0.9872 O.2     
  21 O21            1.2395     9.8672    -0.2031 O.3     
  22 C22            1.0522    11.2839    -0.2065 C.3     
  23 Cl23          -0.5428    -0.4177     5.3663 Cl      
  24 C24           -0.2202    11.6283    -0.9833 C.3     
  25 C25            0.9219    11.7846     1.2334 C.3     
  26 H26           -2.0179     0.6756     3.1576 H       
  27 H27            1.6004     1.4379     5.2765 H       
  28 H28            2.5524     6.5426     2.5609 H       
  29 H29            3.4349     5.4702     1.4409 H       
  30 H30            0.3644     4.5331    -0.0814 H       
  31 H31           -0.5177     5.6055     1.0391 H       
  32 H32            4.2584     6.5216     0.3238 H       
  33 H33            6.0971     8.1340     0.5567 H       
  34 H34            5.6516    10.5493     0.4276 H       
  35 H35            3.3636    11.3724     0.0741 H       
  36 H36            1.9086    11.7625    -0.6815 H       
  37 H37           -1.0766    11.1497    -0.5083 H       
  38 H38           -0.3631    12.7088    -0.9859 H       
  39 H39           -0.1274    11.2716    -2.0091 H       
  40 H40            1.8284    11.5392     1.7867 H       
  41 H41            0.7791    12.8652     1.2308 H       
  42 H42            0.0655    11.3060     1.7084 H       
@<TRIPOS>BOND
   1    1    2 2
   2    1    6 1
   3    2    3 1
   4    2   26 1
   5    3    4 2
   6    3   23 1
   7    4    5 1
   8    4   27 1
   9    5    7 1
  10    5    6 1
  11    6    9 2
  12    7    8 2
  13    8   10 1
  14    8    9 1
  15    9   12 1
  16   10   11 1
  17   10   28 1
  18   10   29 1
  19   11   12 1
  20   11   13 am
  21   12   30 1
  22   12   31 1
  23   13   14 1
  24   13   20 2
  25   14   16 ar
  26   14   15 ar
  27   15   19 ar
  28   15   21 1
  29   16   17 ar
  30   16   32 1
  31   17   18 ar
  32   17   33 1
  33   18   19 ar
  34   18   34 1
  35   19   35 1
  36   21   22 1
  37   22   24 1
  38   22   25 1
  39   22   36 1
  40   24   37 1
  41   24   38 1
  42   24   39 1
  43   25   40 1
  44   25   41 1
  45   25   42 1

#	End of record

