#	Name: ASD01883611
#	Creating user name:	WinNT
#	Creation time:	15. 06. 2019 19:46

#	Modifying user name:	WinNT
#	Modification time:	15. 06. 2019 19:46

#	Program:	/corina/corina34_cracker 3.40 0067  02.08.2006

@<TRIPOS>MOLECULE
ASD01883611
  45   48    0    0    0
SMALL
NO_CHARGES


@<TRIPOS>ATOM
   1 C1            -0.0941     1.0339    -1.5296 C.2     
   2 C2            -0.0384    -0.1955    -0.8565 C.2     
   3 C3            -1.2364    -0.7707    -0.3830 C.2     
   4 C4            -2.4204    -0.1582    -0.5691 C.2     
   5 N5            -2.5202     1.0382    -1.2182 N.pl3   
   6 C6            -1.4028     1.6678    -1.7037 C.2     
   7 C7            -3.5905     1.8388    -1.5230 C.2     
   8 C8            -3.1088     2.9145    -2.1804 C.2     
   9 N9            -1.7807     2.7945    -2.2801 N.2     
  10 C10           -5.0345     1.5682    -1.1872 C.3     
  11 C11           -5.7173     0.8935    -2.3786 C.3     
  12 F12           -5.0708    -0.3138    -2.6643 F       
  13 F13           -7.0578     0.6422    -2.0669 F       
  14 F14           -5.6477     1.7351    -3.4940 F       
  15 C15            1.2554    -0.8780    -0.6471 C.ar    
  16 C16            1.8536    -0.8730     0.6148 C.ar    
  17 C17            3.0597    -1.5108     0.8064 C.ar    
  18 C18            3.6824    -2.1592    -0.2534 C.ar    
  19 C19            3.0928    -2.1678    -1.5108 C.ar    
  20 C20            1.8820    -1.5361    -1.7111 C.ar    
  21 O21            4.8714    -2.7858    -0.0590 O.3     
  22 C22            6.0083    -2.0764    -0.2741 C.ar    
  23 C23            5.9559    -0.7180    -0.5770 C.ar    
  24 C24            7.1343    -0.0320    -0.7890 C.ar    
  25 N25            8.2988    -0.6472    -0.7076 N.ar    
  26 C26            8.3894    -1.9327    -0.4230 C.ar    
  27 C27            7.2577    -2.6870    -0.1920 C.ar    
  28 C28            7.0907     1.4380    -1.1179 C.3     
  29 F29            1.3079    -1.5448    -2.9340 F       
  30 C30            1.0964     1.6549    -2.0276 C.1     
  31 N31            2.0407     2.1475    -2.4225 N.1     
  32 H32           -1.2030    -1.7171     0.1364 H       
  33 H33           -3.3179    -0.6274    -0.1939 H       
  34 H34           -3.6973     3.7369    -2.5595 H       
  35 H35           -5.0887     0.9125    -0.3182 H       
  36 H36           -5.5382     2.5088    -0.9646 H       
  37 H37            1.3715    -0.3694     1.4396 H       
  38 H38            3.5224    -1.5066     1.7822 H       
  39 H39            3.5801    -2.6729    -2.3317 H       
  40 H40            5.0060    -0.2087    -0.6455 H       
  41 H41            9.3618    -2.3990    -0.3661 H       
  42 H42            7.3388    -3.7385     0.0409 H       
  43 H43            7.1290     2.0179    -0.1958 H       
  44 H44            7.9444     1.6955    -1.7448 H       
  45 H45            6.1672     1.6638    -1.6511 H       
@<TRIPOS>BOND
   1    1    2 2
   2    1   30 1
   3    1    6 1
   4    2    3 1
   5    2   15 1
   6    3    4 2
   7    3   32 1
   8    4    5 1
   9    4   33 1
  10    5    6 1
  11    5    7 1
  12    6    9 2
  13    7    8 2
  14    7   10 1
  15    8    9 1
  16    8   34 1
  17   10   11 1
  18   10   35 1
  19   10   36 1
  20   11   12 1
  21   11   13 1
  22   11   14 1
  23   15   16 ar
  24   15   20 ar
  25   16   17 ar
  26   16   37 1
  27   17   18 ar
  28   17   38 1
  29   18   19 ar
  30   18   21 1
  31   19   20 ar
  32   19   39 1
  33   20   29 1
  34   21   22 1
  35   22   23 ar
  36   22   27 ar
  37   23   24 ar
  38   23   40 1
  39   24   25 ar
  40   24   28 1
  41   25   26 ar
  42   26   27 ar
  43   26   41 1
  44   27   42 1
  45   28   43 1
  46   28   44 1
  47   28   45 1
  48   30   31 3

#	End of record

