#	Name: ASD04882185
#	Creating user name:	WinNT
#	Creation time:	15. 06. 2019 20:54

#	Modifying user name:	WinNT
#	Modification time:	15. 06. 2019 20:54

#	Program:	/corina/corina34_cracker 3.40 0067  02.08.2006

@<TRIPOS>MOLECULE
ASD04882185
  76   81    0    0    0
SMALL
NO_CHARGES


@<TRIPOS>ATOM
   1 C1             0.1258     1.4840    -0.4333 C.2     
   2 C2             0.1460     0.0187    -0.4838 C.2     
   3 N3             1.1860    -0.6594     0.0406 N.am    
   4 C4             1.1515    -2.0587     0.0999 C.ar    
   5 C5             2.3302    -2.7944    -0.0510 C.ar    
   6 C6             2.2973    -4.1830     0.0071 C.ar    
   7 C7             1.1040    -4.8386     0.2139 C.ar    
   8 C8            -0.0785    -4.1090     0.3656 C.ar    
   9 C9            -0.0473    -2.7126     0.3133 C.ar    
  10 N10            3.5391    -2.1357    -0.2603 N.3     
  11 C11            3.5461    -1.4479    -1.5590 C.3     
  12 C12            4.6713    -3.0665    -0.1545 C.3     
  13 C13            5.9817    -2.2916    -0.3112 C.3     
  14 N14            5.9888    -1.6038    -1.6099 N.3     
  15 C15            4.8565    -0.6729    -1.7157 C.3     
  16 C16            7.2013    -0.9430    -1.8199 C.ar    
  17 C17            7.9960    -1.2762    -2.9091 C.ar    
  18 C18            7.6125     0.0529    -0.9427 C.ar    
  19 C19            8.8118     0.7040    -1.1532 C.ar    
  20 C20            9.6032     0.3662    -2.2359 C.ar    
  21 C21            9.1945    -0.6208    -3.1137 C.ar    
  22 C22           -1.3567    -4.8115     0.5867 C.2     
  23 N23           -1.3849    -6.1579     0.6425 N.am    
  24 O24           -2.3850    -4.1760     0.7186 O.2     
  25 O25           -0.7764    -0.5852    -0.9995 O.2     
  26 C26            7.5514    -2.3518    -3.8664 C.3     
  27 C27           -2.6542    -6.8555     0.8620 C.3     
  28 C28           -2.4093    -8.3657     0.8826 C.3     
  29 C29           -3.7350    -9.0943     1.1119 C.3     
  30 C30           -3.4937   -10.5817     1.1322 C.2     
  31 N31           -3.8558   -11.4162     2.1436 N.pl3   
  32 C32           -3.4632   -12.6903     1.7852 C.ar    
  33 C33           -2.8567   -12.5687     0.5236 C.ar    
  34 N34           -2.9137   -11.2557     0.1823 N.2     
  35 O35            1.0791     2.2718     0.1059 O.3     
  36 C36           -0.8584     2.2905    -0.9289 C.2     
  37 C37           -0.4684     3.6126    -0.6636 C.2     
  38 C38            0.7233     3.5560    -0.0292 C.2     
  39 C39           -2.3508   -13.7077    -0.1085 C.ar    
  40 C40           -2.4493   -14.9256     0.5023 C.ar    
  41 C41           -3.0482   -15.0462     1.7484 C.ar    
  42 C42           -3.5539   -13.9363     2.3908 C.ar    
  43 H43            1.9584    -0.1786     0.3770 H       
  44 H44            3.2096    -4.7489    -0.1106 H       
  45 H45            1.0817    -5.9175     0.2586 H       
  46 H46           -0.9594    -2.1461     0.4306 H       
  47 H47            3.4598    -2.1822    -2.3599 H       
  48 H48            2.7059    -0.7553    -1.6082 H       
  49 H49            4.6514    -3.5540     0.8203 H       
  50 H50            4.5978    -3.8193    -0.9394 H       
  51 H51            6.0680    -1.5572     0.4896 H       
  52 H52            6.8220    -2.9842    -0.2620 H       
  53 H53            4.8764    -0.1855    -2.6905 H       
  54 H54            4.9300     0.0798    -0.9308 H       
  55 H55            6.9946     0.3176    -0.0974 H       
  56 H56            9.1320     1.4783    -0.4717 H       
  57 H57           10.5404     0.8776    -2.3986 H       
  58 H58            9.8149    -0.8823    -3.9582 H       
  59 H59           -0.5647    -6.6649     0.5373 H       
  60 H60            6.9605    -1.9050    -4.6660 H       
  61 H61            8.4260    -2.8435    -4.2922 H       
  62 H62            6.9459    -3.0849    -3.3334 H       
  63 H63           -3.0801    -6.5435     1.8156 H       
  64 H64           -3.3473    -6.6108     0.0571 H       
  65 H65           -1.9834    -8.6777    -0.0710 H       
  66 H66           -1.7162    -8.6104     1.6875 H       
  67 H67           -4.1609    -8.7823     2.0655 H       
  68 H68           -4.4280    -8.8496     0.3070 H       
  69 H69           -4.3061   -11.1630     2.9646 H       
  70 H70           -1.7616     1.9728    -1.4285 H       
  71 H71           -1.0164     4.5070    -0.9209 H       
  72 H72            1.2947     4.4063     0.3128 H       
  73 H73           -1.8831   -13.6253    -1.0785 H       
  74 H74           -2.0574   -15.8035     0.0104 H       
  75 H75           -3.1182   -16.0161     2.2181 H       
  76 H76           -4.0187   -14.0356     3.3606 H       
@<TRIPOS>BOND
   1    1    2 1
   2    1   35 1
   3    1   36 2
   4    2    3 am
   5    2   25 2
   6    3    4 1
   7    3   43 1
   8    4    5 ar
   9    4    9 ar
  10    5    6 ar
  11    5   10 1
  12    6    7 ar
  13    6   44 1
  14    7    8 ar
  15    7   45 1
  16    8    9 ar
  17    8   22 1
  18    9   46 1
  19   10   11 1
  20   10   12 1
  21   11   15 1
  22   11   47 1
  23   11   48 1
  24   12   13 1
  25   12   49 1
  26   12   50 1
  27   13   14 1
  28   13   51 1
  29   13   52 1
  30   14   15 1
  31   14   16 1
  32   15   53 1
  33   15   54 1
  34   16   17 ar
  35   16   18 ar
  36   17   26 1
  37   17   21 ar
  38   18   19 ar
  39   18   55 1
  40   19   20 ar
  41   19   56 1
  42   20   21 ar
  43   20   57 1
  44   21   58 1
  45   22   23 am
  46   22   24 2
  47   23   27 1
  48   23   59 1
  49   26   60 1
  50   26   61 1
  51   26   62 1
  52   27   28 1
  53   27   63 1
  54   27   64 1
  55   28   29 1
  56   28   65 1
  57   28   66 1
  58   29   30 1
  59   29   67 1
  60   29   68 1
  61   30   31 1
  62   30   34 2
  63   31   32 1
  64   31   69 1
  65   32   33 ar
  66   32   42 ar
  67   33   34 1
  68   33   39 ar
  69   35   38 1
  70   36   37 1
  71   36   70 1
  72   37   38 2
  73   37   71 1
  74   38   72 1
  75   39   40 ar
  76   39   73 1
  77   40   41 ar
  78   40   74 1
  79   41   42 ar
  80   41   75 1
  81   42   76 1

#	End of record

