#	Name: ASD02670007
#	Creating user name:	WinNT
#	Creation time:	15. 06. 2019 20:26

#	Modifying user name:	WinNT
#	Modification time:	15. 06. 2019 20:26

#	Program:	/corina/corina34_cracker 3.40 0067  02.08.2006

@<TRIPOS>MOLECULE
ASD02670007
   8    7    0    0    0
SMALL
NO_CHARGES


@<TRIPOS>ATOM
   1 Cl1            0.0021    -0.0041     0.0020 Cl      
   2 C2            -0.0224     1.7987     0.0119 C.3     
   3 C3             1.4130     2.3283     0.0011 C.3     
   4 Br4           -0.9732     2.4500    -1.5808 Br      
   5 F5             2.0678     1.8771    -1.1500 F       
   6 F6             1.3940     3.7272     0.0088 F       
   7 F7             2.0896     1.8649     1.1345 F       
   8 H8            -0.5326     2.1503     0.9087 H       
@<TRIPOS>BOND
   1    1    2 1
   2    2    3 1
   3    2    4 1
   4    2    8 1
   5    3    5 1
   6    3    6 1
   7    3    7 1

#	End of record

