#	Name: ASD04162007
#	Creating user name:	WinNT
#	Creation time:	15. 06. 2019 20:48

#	Modifying user name:	WinNT
#	Modification time:	15. 06. 2019 20:48

#	Program:	/corina/corina34_cracker 3.40 0067  02.08.2006

@<TRIPOS>MOLECULE
ASD04162007
  36   38    0    0    0
SMALL
NO_CHARGES


@<TRIPOS>ATOM
   1 C1            -0.0167     1.3822     0.0096 C.ar    
   2 C2             0.0021    -0.0041     0.0020 C.ar    
   3 C3             1.2162    -0.6807    -0.0133 C.ar    
   4 C4             2.4067     0.0360    -0.0208 C.ar    
   5 C5             2.3792     1.4225    -0.0131 C.ar    
   6 C6             1.1699     2.0916     0.0021 C.ar    
   7 O7            -1.1658    -0.7009     0.0099 O.3     
   8 O8             1.2389    -2.0414    -0.0203 O.3     
   9 O9             3.5971    -0.6214    -0.0353 O.3     
  10 C10            3.6697     2.2008    -0.0208 C.3     
  11 O11            3.4471     3.4959    -0.5801 O.3     
  12 C12            4.4365     4.4190    -0.4589 C.ar    
  13 C13            5.4631     4.2711     0.4563 C.ar    
  14 C14            5.5397     3.0695     1.3640 C.3     
  15 C15            4.1763     2.3755     1.4166 C.3     
  16 C16            4.4023     5.5386    -1.2838 C.ar    
  17 C17            5.3892     6.5056    -1.1904 C.ar    
  18 C18            6.4169     6.3581    -0.2706 C.ar    
  19 C19            6.4530     5.2430     0.5501 C.ar    
  20 O20            7.4595     5.0988     1.4517 O.3     
  21 O21            5.3511     7.5972    -1.9989 O.3     
  22 O22            3.2555     3.1781     2.1581 O.3     
  23 H23           -0.9597     1.9087     0.0170 H       
  24 H24            1.1519     3.1714     0.0077 H       
  25 H25           -1.5123    -0.8977    -0.8711 H       
  26 H26            1.2368    -2.4302    -0.9057 H       
  27 H27            3.9331    -0.8071    -0.9229 H       
  28 H28            4.4156     1.6690    -0.6115 H       
  29 H29            6.2865     2.3734     0.9820 H       
  30 H30            5.8226     3.3898     2.3667 H       
  31 H31            4.2789     1.3996     1.8912 H       
  32 H32            3.6023     5.6544    -2.0001 H       
  33 H33            7.1877     7.1108    -0.1952 H       
  34 H34            7.2708     5.4865     2.3173 H       
  35 H35            4.8607     8.3440    -1.6286 H       
  36 H36            3.5248     3.3431     3.0720 H       
@<TRIPOS>BOND
   1    1    2 ar
   2    1    6 ar
   3    1   23 1
   4    2    3 ar
   5    2    7 1
   6    3    4 ar
   7    3    8 1
   8    4    5 ar
   9    4    9 1
  10    5    6 ar
  11    5   10 1
  12    6   24 1
  13    7   25 1
  14    8   26 1
  15    9   27 1
  16   10   11 1
  17   10   15 1
  18   10   28 1
  19   11   12 1
  20   12   13 ar
  21   12   16 ar
  22   13   14 1
  23   13   19 ar
  24   14   15 1
  25   14   29 1
  26   14   30 1
  27   15   22 1
  28   15   31 1
  29   16   17 ar
  30   16   32 1
  31   17   18 ar
  32   17   21 1
  33   18   19 ar
  34   18   33 1
  35   19   20 1
  36   20   34 1
  37   21   35 1
  38   22   36 1

#	End of record

