#	Name: ASD01810632
#	Creating user name:	WinNT
#	Creation time:	15. 06. 2019 19:25

#	Modifying user name:	WinNT
#	Modification time:	15. 06. 2019 19:25

#	Program:	/corina/corina34_cracker 3.40 0067  02.08.2006

@<TRIPOS>MOLECULE
ASD01810632
  72   76    0    0    0
SMALL
NO_CHARGES


@<TRIPOS>ATOM
   1 C1            -0.1577     0.9695     0.1183 C.3     
   2 C2             0.2102    -0.4923     0.1780 C.2     
   3 C3             1.4281    -0.9828    -0.1474 C.2     
   4 C4             2.5903    -0.1374    -0.6072 C.3     
   5 C5             2.0592     1.2249    -1.0696 C.3     
   6 N6             1.0914     1.7266    -0.0825 N.am    
   7 C7             0.2047    -2.6665     0.4341 C.2     
   8 N8            -0.5678    -1.5449     0.5492 N.pl3   
   9 N9             1.3992    -2.3068     0.0138 N.2     
  10 C10            1.3394     2.8499     0.6199 C.2     
  11 O11            2.4629     3.3140     0.6474 O.2     
  12 N12            0.3421     3.4586     1.2916 N.am    
  13 C13            0.6428     4.5604     2.2091 C.3     
  14 C14           -1.0426     3.0185     1.1044 C.3     
  15 C15           -0.2279    -4.0495     0.7316 C.ar    
  16 C16            0.6047    -5.1259     0.4177 C.ar    
  17 C17            0.2026    -6.4173     0.6947 C.ar    
  18 C18           -1.0237    -6.6540     1.2837 C.ar    
  19 C19           -1.8660    -5.5867     1.6026 C.ar    
  20 C20           -1.4638    -4.2805     1.3305 C.ar    
  21 C21           -1.4543    -8.0669     1.5823 C.3     
  22 C22            1.9448    -4.8772    -0.2251 C.3     
  23 C23           -3.1793    -5.8417     2.2323 C.2     
  24 O24           -3.2577    -6.5739     3.1994 O.2     
  25 N25           -4.2894    -5.2624     1.7340 N.am    
  26 C26           -5.5817    -5.4093     2.4174 C.3     
  27 C27           -6.6123    -5.9384     1.4149 C.3     
  28 C28           -6.6486    -5.0177     0.1929 C.3     
  29 C29           -5.2759    -5.0109    -0.4837 C.3     
  30 C30           -4.2292    -4.4667     0.5003 C.3     
  31 C31           -7.6856    -5.5160    -0.7804 C.ar    
  32 C32           -8.7480    -4.7020    -1.1314 C.ar    
  33 C33           -9.7008    -5.1517    -2.0218 C.ar    
  34 C34           -9.5911    -6.4315    -2.5694 C.ar    
  35 C35           -8.5162    -7.2475    -2.2111 C.ar    
  36 C36           -7.5679    -6.7832    -1.3232 C.ar    
  37 C37          -10.5768    -6.9051    -3.4939 C.1     
  38 N38          -11.3587    -7.2809    -4.2273 N.1     
  39 H39           -0.8374     1.1473    -0.7151 H       
  40 H40           -0.6288     1.2721     1.0535 H       
  41 H41            3.2883     0.0037     0.2180 H       
  42 H42            3.0967    -0.6323    -1.4359 H       
  43 H43            2.8875     1.9280    -1.1574 H       
  44 H44            1.5692     1.1155    -2.0371 H       
  45 H45           -1.4924    -1.5067     0.8400 H       
  46 H46            0.6082     5.5050     1.6663 H       
  47 H47           -0.0939     4.5757     3.0123 H       
  48 H48            1.6378     4.4203     2.6315 H       
  49 H49           -1.2916     2.2719     1.8585 H       
  50 H50           -1.7120     3.8729     1.2040 H       
  51 H51           -1.1543     2.5832     0.1113 H       
  52 H52            0.8500    -7.2462     0.4493 H       
  53 H53           -2.1094    -3.4512     1.5792 H       
  54 H54           -1.0647    -8.3676     2.5549 H       
  55 H55           -2.5430    -8.1200     1.5949 H       
  56 H56           -1.0668    -8.7351     0.8133 H       
  57 H57            2.6785    -4.6387     0.5449 H       
  58 H58            2.2608    -5.7706    -0.7637 H       
  59 H59            1.8645    -4.0425    -0.9215 H       
  60 H60           -5.4804    -6.1135     3.2432 H       
  61 H61           -5.9060    -4.4408     2.7980 H       
  62 H62           -6.3336    -6.9451     1.1038 H       
  63 H63           -7.5965    -5.9610     1.8827 H       
  64 H64           -6.9032    -4.0058     0.5081 H       
  65 H65           -5.0098    -6.0264    -0.7770 H       
  66 H66           -5.3090    -4.3734    -1.3672 H       
  67 H67           -4.4454    -3.4228     0.7277 H       
  68 H68           -3.2351    -4.5487     0.0608 H       
  69 H69           -8.8316    -3.7124    -0.7071 H       
  70 H70          -10.5299    -4.5156    -2.2944 H       
  71 H71           -8.4254    -8.2384    -2.6309 H       
  72 H72           -6.7338    -7.4118    -1.0484 H       
@<TRIPOS>BOND
   1    1    2 1
   2    1    6 1
   3    1   39 1
   4    1   40 1
   5    2    3 2
   6    2    8 1
   7    3    4 1
   8    3    9 1
   9    4    5 1
  10    4   41 1
  11    4   42 1
  12    5    6 1
  13    5   43 1
  14    5   44 1
  15    6   10 am
  16    7    8 1
  17    7    9 2
  18    7   15 1
  19    8   45 1
  20   10   11 2
  21   10   12 am
  22   12   13 1
  23   12   14 1
  24   13   46 1
  25   13   47 1
  26   13   48 1
  27   14   49 1
  28   14   50 1
  29   14   51 1
  30   15   16 ar
  31   15   20 ar
  32   16   17 ar
  33   16   22 1
  34   17   18 ar
  35   17   52 1
  36   18   19 ar
  37   18   21 1
  38   19   20 ar
  39   19   23 1
  40   20   53 1
  41   21   54 1
  42   21   55 1
  43   21   56 1
  44   22   57 1
  45   22   58 1
  46   22   59 1
  47   23   24 2
  48   23   25 am
  49   25   26 1
  50   25   30 1
  51   26   27 1
  52   26   60 1
  53   26   61 1
  54   27   28 1
  55   27   62 1
  56   27   63 1
  57   28   29 1
  58   28   31 1
  59   28   64 1
  60   29   30 1
  61   29   65 1
  62   29   66 1
  63   30   67 1
  64   30   68 1
  65   31   32 ar
  66   31   36 ar
  67   32   33 ar
  68   32   69 1
  69   33   34 ar
  70   33   70 1
  71   34   35 ar
  72   34   37 1
  73   35   36 ar
  74   35   71 1
  75   36   72 1
  76   37   38 3

#	End of record

