#	Name: ASD01180097
#	Creating user name:	WinNT
#	Creation time:	15. 06. 2019 19:06

#	Modifying user name:	WinNT
#	Modification time:	15. 06. 2019 19:06

#	Program:	/corina/corina34_cracker 3.40 0067  02.08.2006

@<TRIPOS>MOLECULE
ASD01180097
  60   62    0    0    0
SMALL
NO_CHARGES


@<TRIPOS>ATOM
   1 C1             0.9120     1.5339    -0.6217 C.2     
   2 C2             0.8063     0.0330    -0.5374 C.3     
   3 C3             2.2057    -0.5816    -0.6074 C.3     
   4 O4             1.9955     2.0583    -0.7269 O.2     
   5 O5            -0.1978     2.2880    -0.5854 O.3     
   6 N6             2.1029    -2.0407    -0.5255 N.am    
   7 C7             3.2168    -2.7981    -0.5676 C.2     
   8 C8             3.1131    -4.2706    -0.4849 C.ar    
   9 C9             4.2648    -5.0580    -0.5281 C.ar    
  10 C10            4.1610    -6.4314    -0.4501 C.ar    
  11 C11            2.9188    -7.0286    -0.3296 C.ar    
  12 C12            1.7732    -6.2540    -0.2862 C.ar    
  13 C13            1.8635    -4.8792    -0.3575 C.ar    
  14 O14            4.3068    -2.2707    -0.6734 O.2     
  15 C15            2.8130    -8.5296    -0.2458 C.3     
  16 C16            2.6307    -8.9473     1.2147 C.3     
  17 C17            3.8956    -8.6051     2.0047 C.3     
  18 C18            3.6647    -8.8974     3.4887 C.3     
  19 C19            5.0615    -9.4535     1.4931 C.3     
  20 N20            1.6618    -8.9826    -1.0306 N.pl3   
  21 N21            0.6754   -10.5988    -2.3933 N.ar    
  22 C22            1.6609   -10.2509    -1.5915 C.ar    
  23 C23            2.7093   -11.1327    -1.2923 C.ar    
  24 C24            2.7218   -12.3818    -1.8359 C.ar    
  25 C25            1.6640   -12.7485    -2.6929 C.ar    
  26 C26            1.6151   -14.0195    -3.2859 C.ar    
  27 C27            0.5782   -14.3403    -4.1083 C.ar    
  28 C28           -0.4375   -13.4207    -4.3698 C.ar    
  29 C29           -0.4198   -12.1772    -3.8095 C.ar    
  30 C30            0.6340   -11.8124    -2.9560 C.ar    
  31 C31            3.8381   -13.3468    -1.5295 C.3     
  32 F32           -1.4534   -13.7665    -5.1905 F       
  33 H33            0.3338    -0.2456     0.4045 H       
  34 H34            0.2054    -0.3361    -1.3686 H       
  35 H35            2.6782    -0.3029    -1.5493 H       
  36 H36            2.8066    -0.2125     0.2237 H       
  37 H37           -0.0797     3.2461    -0.6426 H       
  38 H38            1.2330    -2.4616    -0.4411 H       
  39 H39            5.2350    -4.5930    -0.6229 H       
  40 H40            5.0514    -7.0418    -0.4834 H       
  41 H41            0.8066    -6.7263    -0.1920 H       
  42 H42            0.9689    -4.2754    -0.3190 H       
  43 H43            3.7229    -8.9806    -0.6419 H       
  44 H44            1.7807    -8.4150     1.6415 H       
  45 H45            2.4499   -10.0210     1.2657 H       
  46 H46            4.1305    -7.5487     1.8747 H       
  47 H47            3.4298    -9.9538     3.6186 H       
  48 H48            4.5658    -8.6536     4.0514 H       
  49 H49            2.8341    -8.2930     3.8531 H       
  50 H50            5.2878    -9.1768     0.4634 H       
  51 H51            5.9383    -9.2800     2.1170 H       
  52 H52            4.7891   -10.5081     1.5345 H       
  53 H53            0.9003    -8.3954    -1.1578 H       
  54 H54            3.5057   -10.8221    -0.6323 H       
  55 H55            2.3963   -14.7395    -3.0914 H       
  56 H56            0.5419   -15.3188    -4.5640 H       
  57 H57           -1.2132   -11.4758    -4.0216 H       
  58 H58            3.5782   -13.9355    -0.6497 H       
  59 H59            3.9875   -14.0115    -2.3803 H       
  60 H60            4.7559   -12.7913    -1.3368 H       
@<TRIPOS>BOND
   1    1    2 1
   2    1    4 2
   3    1    5 1
   4    2    3 1
   5    2   33 1
   6    2   34 1
   7    3    6 1
   8    3   35 1
   9    3   36 1
  10    5   37 1
  11    6    7 am
  12    6   38 1
  13    7    8 1
  14    7   14 2
  15    8    9 ar
  16    8   13 ar
  17    9   10 ar
  18    9   39 1
  19   10   11 ar
  20   10   40 1
  21   11   12 ar
  22   11   15 1
  23   12   13 ar
  24   12   41 1
  25   13   42 1
  26   15   16 1
  27   15   20 1
  28   15   43 1
  29   16   17 1
  30   16   44 1
  31   16   45 1
  32   17   18 1
  33   17   19 1
  34   17   46 1
  35   18   47 1
  36   18   48 1
  37   18   49 1
  38   19   50 1
  39   19   51 1
  40   19   52 1
  41   20   22 1
  42   20   53 1
  43   21   22 ar
  44   21   30 ar
  45   22   23 ar
  46   23   24 ar
  47   23   54 1
  48   24   25 ar
  49   24   31 1
  50   25   26 ar
  51   25   30 ar
  52   26   27 ar
  53   26   55 1
  54   27   28 ar
  55   27   56 1
  56   28   29 ar
  57   28   32 1
  58   29   30 ar
  59   29   57 1
  60   31   58 1
  61   31   59 1
  62   31   60 1

#	End of record

