#	Name: ASD08151088
#	Creating user name:	WinNT
#	Creation time:	15. 06. 2019 21:17

#	Modifying user name:	WinNT
#	Modification time:	15. 06. 2019 21:17

#	Program:	/corina/corina34_cracker 3.40 0067  02.08.2006

@<TRIPOS>MOLECULE
ASD08151088
  33   35    0    0    0
SMALL
NO_CHARGES


@<TRIPOS>ATOM
   1 C1            -0.0187     1.5258     0.0104 C.3     
   2 C2             0.0021    -0.0041     0.0020 C.3     
   3 N3             4.1187     2.8158     2.2975 N.ar    
   4 N4             5.3237     3.2614     2.2732 N.ar    
   5 C5             5.9485     3.6055     1.1560 C.ar    
   6 C6             5.3226     3.4998    -0.0552 C.ar    
   7 C7             4.0018     3.0146    -0.0642 C.ar    
   8 C8             3.2692     2.8669    -1.2536 C.ar    
   9 C9             1.9904     2.3900    -1.2087 C.ar    
  10 C10            1.3951     2.0474    -0.0003 C.ar    
  11 C11            2.0832     2.1792     1.1932 C.ar    
  12 C12            3.4099     2.6698     1.1775 C.ar    
  13 C13            1.4371     1.8099     2.4741 C.ar    
  14 C14            1.9323     0.7452     3.2262 C.ar    
  15 C15            1.3254     0.4060     4.4205 C.ar    
  16 C16            0.2273     1.1222     4.8696 C.ar    
  17 C17           -0.2669     2.1784     4.1263 C.ar    
  18 C18            0.3350     2.5294     2.9349 C.ar    
  19 F19            1.8029    -0.6254     5.1509 F       
  20 F20            3.8284     3.1953    -2.4388 F       
  21 O21           -0.7098     1.9991    -1.1473 O.3     
  22 H22           -0.5289     1.8773     0.9072 H       
  23 H23            0.5293    -0.3651     0.8851 H       
  24 H24           -1.0205    -0.3814     0.0098 H       
  25 H25            0.5123    -0.3556    -0.8948 H       
  26 H26            6.9627     3.9736     1.2028 H       
  27 H27            5.8233     3.7784    -0.9707 H       
  28 H28            1.4321     2.2791    -2.1264 H       
  29 H29            2.7879     0.1868     2.8761 H       
  30 H30           -0.2445     0.8543     5.8035 H       
  31 H31           -1.1234     2.7325     4.4809 H       
  32 H32           -0.0498     3.3575     2.3582 H       
  33 H33           -1.6280     1.7017    -1.2062 H       
@<TRIPOS>BOND
   1    1    2 1
   2    1   10 1
   3    1   21 1
   4    1   22 1
   5    2   23 1
   6    2   24 1
   7    2   25 1
   8    3    4 ar
   9    3   12 ar
  10    4    5 ar
  11    5    6 ar
  12    5   26 1
  13    6    7 ar
  14    6   27 1
  15    7    8 ar
  16    7   12 ar
  17    8    9 ar
  18    8   20 1
  19    9   10 ar
  20    9   28 1
  21   10   11 ar
  22   11   12 ar
  23   11   13 1
  24   13   14 ar
  25   13   18 ar
  26   14   15 ar
  27   14   29 1
  28   15   16 ar
  29   15   19 1
  30   16   17 ar
  31   16   30 1
  32   17   18 ar
  33   17   31 1
  34   18   32 1
  35   21   33 1

#	End of record

