#	Name: ASD01883497
#	Creating user name:	WinNT
#	Creation time:	15. 06. 2019 19:46

#	Modifying user name:	WinNT
#	Modification time:	15. 06. 2019 19:46

#	Program:	/corina/corina34_cracker 3.40 0067  02.08.2006

@<TRIPOS>MOLECULE
ASD01883497
  55   57    0    0    0
SMALL
NO_CHARGES


@<TRIPOS>ATOM
   1 N1            -0.0162     1.3418     0.0094 N.am    
   2 C2             0.0021    -0.0041     0.0020 C.2     
   3 C3            -1.2147    -0.7262     0.0102 C.2     
   4 C4            -2.4239    -0.0108     0.0261 C.2     
   5 C5            -2.3777     1.3956     0.0332 C.2     
   6 C6            -1.1861     2.0320     0.0299 C.2     
   7 O7             1.0658    -0.6002    -0.0122 O.2     
   8 C8            -1.2137    -2.1582     0.0021 C.1     
   9 N9            -1.2130    -3.2942    -0.0044 N.1     
  10 C10            1.2510     2.0769     0.0013 C.3     
  11 C11            1.6783     2.3406    -1.4440 C.3     
  12 C12            3.0017     3.1084    -1.4525 C.3     
  13 C13            4.1046     2.2302    -0.8581 C.3     
  14 C14            3.3660     3.4808    -2.8911 C.3     
  15 N15           -3.6309    -0.6732     0.0341 N.pl3   
  16 C16           -5.0501    -0.2879     0.0501 C.3     
  17 C17           -5.3490    -1.6241     0.7439 C.3     
  18 C18           -4.0683    -2.0772     0.0237 C.3     
  19 O19           -5.2417    -1.5816     2.1682 O.3     
  20 C20           -6.1082    -2.4953     2.8439 C.3     
  21 C21           -5.9123    -2.3658     4.3325 C.ar    
  22 C22           -6.6768    -1.4673     5.0536 C.ar    
  23 C23           -6.4992    -1.3467     6.4183 C.ar    
  24 C24           -5.5529    -2.1281     7.0651 C.ar    
  25 C25           -4.7871    -3.0289     6.3393 C.ar    
  26 C26           -4.9724    -3.1497     4.9757 C.ar    
  27 O27           -5.3760    -2.0110     8.4075 O.3     
  28 C28           -4.3839    -2.8471     9.0065 C.3     
  29 F29           -3.1360    -2.5712     8.4374 F       
  30 F30           -4.3340    -2.5992    10.3824 F       
  31 F31           -4.7105    -4.1895     8.7860 F       
  32 H32           -3.2946     1.9661     0.0450 H       
  33 H33           -1.1631     3.1117     0.0354 H       
  34 H34            1.1236     3.0263     0.5214 H       
  35 H35            2.0167     1.4867     0.5046 H       
  36 H36            1.8057     1.3912    -1.9642 H       
  37 H37            0.9126     2.9308    -1.9474 H       
  38 H38            2.8992     4.0157    -0.8572 H       
  39 H39            5.0474     2.7772    -0.8641 H       
  40 H40            3.8451     1.9649     0.1668 H       
  41 H41            4.2071     1.3229    -1.4534 H       
  42 H42            2.5803     4.1064    -3.3145 H       
  43 H43            4.3089     4.0277    -2.8971 H       
  44 H44            3.4685     2.5735    -3.4864 H       
  45 H45           -5.2569     0.5812     0.6745 H       
  46 H46           -5.4892    -0.2073    -0.9443 H       
  47 H47           -6.2553    -2.1173     0.3923 H       
  48 H48           -4.2491    -2.4718    -0.9761 H       
  49 H49           -3.4387    -2.7304     0.6278 H       
  50 H50           -7.1439    -2.2671     2.5925 H       
  51 H51           -5.8749    -3.5139     2.5340 H       
  52 H52           -7.4132    -0.8589     4.5495 H       
  53 H53           -7.0964    -0.6445     6.9810 H       
  54 H54           -4.0497    -3.6383     6.8406 H       
  55 H55           -4.3765    -3.8508     4.4102 H       
@<TRIPOS>BOND
   1    1    2 am
   2    1   10 1
   3    1    6 1
   4    2    3 1
   5    2    7 2
   6    3    4 2
   7    3    8 1
   8    4    5 1
   9    4   15 1
  10    5    6 2
  11    5   32 1
  12    6   33 1
  13    8    9 3
  14   10   11 1
  15   10   34 1
  16   10   35 1
  17   11   12 1
  18   11   36 1
  19   11   37 1
  20   12   13 1
  21   12   14 1
  22   12   38 1
  23   13   39 1
  24   13   40 1
  25   13   41 1
  26   14   42 1
  27   14   43 1
  28   14   44 1
  29   15   16 1
  30   15   18 1
  31   16   17 1
  32   16   45 1
  33   16   46 1
  34   17   18 1
  35   17   19 1
  36   17   47 1
  37   18   48 1
  38   18   49 1
  39   19   20 1
  40   20   21 1
  41   20   50 1
  42   20   51 1
  43   21   22 ar
  44   21   26 ar
  45   22   23 ar
  46   22   52 1
  47   23   24 ar
  48   23   53 1
  49   24   25 ar
  50   24   27 1
  51   25   26 ar
  52   25   54 1
  53   26   55 1
  54   27   28 1
  55   28   29 1
  56   28   30 1
  57   28   31 1

#	End of record

