#	Name: ASD01148070
#	Creating user name:	WinNT
#	Creation time:	15. 06. 2019 19:01

#	Modifying user name:	WinNT
#	Modification time:	15. 06. 2019 19:01

#	Program:	/corina/corina34_cracker 3.40 0067  02.08.2006

@<TRIPOS>MOLECULE
ASD01148070
  37   37    0    0    0
SMALL
NO_CHARGES


@<TRIPOS>ATOM
   1 C1            -0.0184     1.5028     0.0103 C.2     
   2 C2             0.0021    -0.0041     0.0020 C.3     
   3 C3            -0.2279    -0.5251     1.4221 C.3     
   4 O4             1.0236     2.1234     0.0037 O.2     
   5 N5            -1.1946     2.1607     0.0195 N.am    
   6 O6            -0.3247    -1.9505     1.3966 O.3     
   7 C7            -0.5409    -2.5414     2.6797 C.3     
   8 F8             0.5221    -2.2149     3.5286 F       
   9 F9            -1.7361    -2.0561     3.2211 F       
  10 C10           -1.2145     3.6256     0.0275 C.3     
  11 C11           -2.6419     4.1085     0.0369 C.ar    
  12 N12            1.3019    -0.4721    -0.4853 N.am    
  13 S13            1.3963    -1.8496    -1.3997 S.o2    
  14 O14            0.6822    -2.8200    -0.6463 O.2     
  15 C15            0.5015    -1.4429    -2.9244 C.3     
  16 O16            2.7846    -2.0018    -1.6618 O.2     
  17 C17           -3.2910     4.3235     1.2383 C.ar    
  18 C18           -4.6004     4.7665     1.2470 C.ar    
  19 C19           -5.2606     4.9949     0.0541 C.ar    
  20 C20           -4.6113     4.7808    -1.1473 C.ar    
  21 C21           -3.3005     4.3419    -1.1559 C.ar    
  22 H22           -0.7864    -0.3745    -0.6531 H       
  23 H23            0.6068    -0.2288     2.0574 H       
  24 H24           -1.1526    -0.1051     1.8179 H       
  25 H25           -2.0280     1.6644     0.0207 H       
  26 H26           -0.6028    -3.6246     2.5751 H       
  27 H27           -0.7014     3.9910     0.9171 H       
  28 H28           -0.7098     4.0007    -0.8628 H       
  29 H29            2.1073     0.0248    -0.2724 H       
  30 H30            0.9831    -0.5961    -3.4134 H       
  31 H31            0.5134    -2.3035    -3.5932 H       
  32 H32           -0.5295    -1.1847    -2.6828 H       
  33 H33           -2.7751     4.1451     2.1703 H       
  34 H34           -5.1077     4.9338     2.1856 H       
  35 H35           -6.2839     5.3403     0.0609 H       
  36 H36           -5.1273     4.9589    -2.0792 H       
  37 H37           -2.7932     4.1747    -2.0945 H       
@<TRIPOS>BOND
   1    1    2 1
   2    1    4 2
   3    1    5 am
   4    2    3 1
   5    2   12 1
   6    2   22 1
   7    3    6 1
   8    3   23 1
   9    3   24 1
  10    5   10 1
  11    5   25 1
  12    6    7 1
  13    7    8 1
  14    7    9 1
  15    7   26 1
  16   10   11 1
  17   10   27 1
  18   10   28 1
  19   11   17 ar
  20   11   21 ar
  21   12   13 am
  22   12   29 1
  23   13   14 2
  24   13   15 1
  25   13   16 2
  26   15   30 1
  27   15   31 1
  28   15   32 1
  29   17   18 ar
  30   17   33 1
  31   18   19 ar
  32   18   34 1
  33   19   20 ar
  34   19   35 1
  35   20   21 ar
  36   20   36 1
  37   21   37 1

#	End of record

