#	Name: ASD01916659
#	Creating user name:	WinNT
#	Creation time:	15. 06. 2019 20:07

#	Modifying user name:	WinNT
#	Modification time:	15. 06. 2019 20:07

#	Program:	/corina/corina34_cracker 3.40 0067  02.08.2006

@<TRIPOS>MOLECULE
ASD01916659
  46   50    0    0    0
SMALL
NO_CHARGES


@<TRIPOS>ATOM
   1 C1            -0.0171     1.4098     0.0098 C.ar    
   2 C2             0.0021    -0.0041     0.0020 C.ar    
   3 C3            -1.1910    -0.7268     0.0096 C.ar    
   4 C4            -2.3847    -0.0669     0.0237 C.ar    
   5 C5            -2.4225     1.3358     0.0293 C.ar    
   6 C6            -1.2419     2.0749     0.0193 C.ar    
   7 N7             1.1584     2.0866     0.0022 N.2     
   8 C8             2.3053     1.4767    -0.0175 C.2     
   9 N9             2.4089     0.1112    -0.0189 N.am    
  10 C10            1.3122    -0.6714    -0.0137 C.2     
  11 C11           -3.6844     2.0125     0.0420 C.1     
  12 O12            1.4025    -1.8855    -0.0213 O.2     
  13 C13           -4.7190     2.5673     0.0524 C.1     
  14 C14           -5.9810     3.2440     0.0651 C.ar    
  15 N15           -6.0172     4.5731     0.0704 N.ar    
  16 C16           -7.1574     5.2318     0.0816 C.ar    
  17 C17           -8.3666     4.5602     0.0884 C.ar    
  18 C18           -8.3760     3.1719     0.0832 C.ar    
  19 C19           -7.1655     2.5029     0.0660 C.ar    
  20 C20            3.5824     2.2838    -0.0504 C.3     
  21 C21            4.1923     2.2093    -1.4474 C.3     
  22 C22            5.1285     1.0150    -1.5680 C.3     
  23 C23            4.3738    -0.2940    -1.4025 C.3     
  24 C24            3.7520    -0.4847    -0.0208 C.3     
  25 C25            3.3944    -0.5897    -2.5507 C.3     
  26 O26            3.9106    -1.9351    -2.4916 O.3     
  27 C27            5.1561    -1.5233    -1.8925 C.3     
  28 H28           -1.1697    -1.8066     0.0040 H       
  29 H29           -3.3074    -0.6280     0.0302 H       
  30 H30           -1.2753     3.1544     0.0239 H       
  31 H31           -7.1482     6.3118     0.0860 H       
  32 H32           -9.2955     5.1111     0.0979 H       
  33 H33           -9.3081     2.6263     0.0883 H       
  34 H34           -7.1363     1.4233     0.0616 H       
  35 H35            3.3625     3.3227     0.1954 H       
  36 H36            4.2871     1.8793     0.6761 H       
  37 H37            3.3933     2.1140    -2.1827 H       
  38 H38            4.7515     3.1241    -1.6436 H       
  39 H39            5.6043     1.0315    -2.5485 H       
  40 H40            5.8969     1.0842    -0.7980 H       
  41 H41            4.3710     0.0074     0.7294 H       
  42 H42            3.6797    -1.5490     0.2035 H       
  43 H43            2.3450    -0.5070    -2.2677 H       
  44 H44            3.6305    -0.0669    -3.4775 H       
  45 H45            5.9373    -1.2894    -2.6158 H       
  46 H46            5.4973    -2.1776    -1.0903 H       
@<TRIPOS>BOND
   1    1    2 ar
   2    1    7 1
   3    1    6 ar
   4    2    3 ar
   5    2   10 1
   6    3    4 ar
   7    3   28 1
   8    4    5 ar
   9    4   29 1
  10    5    6 ar
  11    5   11 1
  12    6   30 1
  13    7    8 2
  14    8    9 1
  15    8   20 1
  16    9   10 am
  17    9   24 1
  18   10   12 2
  19   11   13 3
  20   13   14 1
  21   14   15 ar
  22   14   19 ar
  23   15   16 ar
  24   16   17 ar
  25   16   31 1
  26   17   18 ar
  27   17   32 1
  28   18   19 ar
  29   18   33 1
  30   19   34 1
  31   20   21 1
  32   20   35 1
  33   20   36 1
  34   21   22 1
  35   21   37 1
  36   21   38 1
  37   22   23 1
  38   22   39 1
  39   22   40 1
  40   23   24 1
  41   23   25 1
  42   23   27 1
  43   24   41 1
  44   24   42 1
  45   25   26 1
  46   25   43 1
  47   25   44 1
  48   26   27 1
  49   27   45 1
  50   27   46 1

#	End of record

