#	Name: ASD01720169
#	Creating user name:	WinNT
#	Creation time:	15. 06. 2019 19:23

#	Modifying user name:	WinNT
#	Modification time:	15. 06. 2019 19:23

#	Program:	/corina/corina34_cracker 3.40 0067  02.08.2006

@<TRIPOS>MOLECULE
ASD01720169
  46   48    0    0    0
SMALL
NO_CHARGES


@<TRIPOS>ATOM
   1 C1            -0.3438     1.1909    -0.2507 C.ar    
   2 N2            -0.1603    -0.1208    -0.2539 N.ar    
   3 C3             1.0067    -0.6456     0.0900 C.ar    
   4 N4             2.0310     0.1132     0.4490 N.ar    
   5 C5             1.9167     1.4367     0.4747 C.ar    
   6 C6             0.7001     2.0186     0.1174 C.ar    
   7 N7             2.9939     2.2302     0.8526 N.am    
   8 C8             2.9382     3.6745     1.1254 C.3     
   9 C9             4.3901     4.0344     1.4950 C.3     
  10 O10            5.1042     2.7684     1.3928 O.3     
  11 C11            4.2510     1.8029     1.0333 C.2     
  12 N12            1.1590    -2.0211     0.0739 N.pl3   
  13 C13            0.0376    -2.8777    -0.3199 C.3     
  14 C14            0.2024    -4.2394     0.3041 C.ar    
  15 C15            0.0111    -3.0147    -1.8436 C.3     
  16 C16            1.4640    -4.7089     0.6156 C.ar    
  17 C17            1.6155    -5.9585     1.1877 C.ar    
  18 C18            0.5054    -6.7395     1.4487 C.ar    
  19 C19           -0.7577    -6.2718     1.1384 C.ar    
  20 C20           -0.9111    -5.0185     0.5708 C.ar    
  21 C21            1.9977     3.9643     2.2969 C.3     
  22 C22            2.5021     3.2405     3.5469 C.3     
  23 C23            1.9604     5.4710     2.5603 C.3     
  24 O24            4.5861     0.6451     0.8811 O.2     
  25 F25           -2.1452    -4.5601     0.2675 F       
  26 H26           -1.2975     1.6094    -0.5368 H       
  27 H27            0.5767     3.0914     0.1284 H       
  28 H28            2.6230     4.2203     0.2360 H       
  29 H29            4.7955     4.7597     0.7896 H       
  30 H30            4.4408     4.4205     2.5131 H       
  31 H31            2.0081    -2.4180     0.3234 H       
  32 H32           -0.8970    -2.4324     0.0211 H       
  33 H33           -0.1081    -2.0297    -2.2949 H       
  34 H34            0.9457    -3.4600    -2.1846 H       
  35 H35           -0.8233    -3.6520    -2.1366 H       
  36 H36            2.3322    -4.0997     0.4117 H       
  37 H37            2.6021    -6.3248     1.4304 H       
  38 H38            0.6250    -7.7157     1.8949 H       
  39 H39           -1.6250    -6.8824     1.3421 H       
  40 H40            0.9950     3.6131     2.0533 H       
  41 H41            3.4608     3.6621     3.8490 H       
  42 H42            1.7803     3.3638     4.3543 H       
  43 H43            2.6245     2.1797     3.3279 H       
  44 H44            1.6941     5.9940     1.6417 H       
  45 H45            1.2189     5.6872     3.3294 H       
  46 H46            2.9416     5.8054     2.8972 H       
@<TRIPOS>BOND
   1    1    2 ar
   2    1    6 ar
   3    1   26 1
   4    2    3 ar
   5    3    4 ar
   6    3   12 1
   7    4    5 ar
   8    5    6 ar
   9    5    7 1
  10    6   27 1
  11    7    8 1
  12    7   11 am
  13    8    9 1
  14    8   21 1
  15    8   28 1
  16    9   10 1
  17    9   29 1
  18    9   30 1
  19   10   11 1
  20   11   24 2
  21   12   13 1
  22   12   31 1
  23   13   14 1
  24   13   15 1
  25   13   32 1
  26   14   16 ar
  27   14   20 ar
  28   15   33 1
  29   15   34 1
  30   15   35 1
  31   16   17 ar
  32   16   36 1
  33   17   18 ar
  34   17   37 1
  35   18   19 ar
  36   18   38 1
  37   19   20 ar
  38   19   39 1
  39   20   25 1
  40   21   22 1
  41   21   23 1
  42   21   40 1
  43   22   41 1
  44   22   42 1
  45   22   43 1
  46   23   44 1
  47   23   45 1
  48   23   46 1

#	End of record

