#	Name: ASD00311058
#	Creating user name:	WinNT
#	Creation time:	15. 06. 2019 18:34

#	Modifying user name:	WinNT
#	Modification time:	15. 06. 2019 18:34

#	Program:	/corina/corina34_cracker 3.40 0067  02.08.2006

@<TRIPOS>MOLECULE
ASD00311058
  42   45    0    0    0
SMALL
NO_CHARGES


@<TRIPOS>ATOM
   1 C1            -0.0167     1.3775     0.0096 C.2     
   2 C2             0.0021    -0.0041     0.0020 C.2     
   3 C3             1.2586    -0.6767    -0.0136 C.2     
   4 C4             2.4315     0.0671    -0.0208 C.2     
   5 C5             2.3575     1.4748    -0.0126 C.2     
   6 N6             1.1650     2.0900     0.0022 N.am    
   7 C7            -1.3435    -0.5755     0.0123 C.2     
   8 C8            -2.3233     0.3267     0.0268 C.2     
   9 S9            -1.6791     1.9565     0.0358 S.3     
  10 O10            3.3825     2.1369    -0.0188 O.2     
  11 C11           -1.5961    -2.0354     0.0065 C.ar    
  12 C12           -2.2066    -2.6446     1.1023 C.ar    
  13 C13           -2.4397    -4.0046     1.0909 C.ar    
  14 C14           -2.0689    -4.7635    -0.0047 C.ar    
  15 C15           -1.4629    -4.1649    -1.0948 C.ar    
  16 C16           -1.2294    -2.8049    -1.0972 C.ar    
  17 C17            3.7477    -0.6124    -0.0366 C.ar    
  18 C18            4.5909    -0.4743    -1.1360 C.ar    
  19 C19            5.8278    -1.1165    -1.1429 C.ar    
  20 C20            6.2134    -1.8937    -0.0479 C.ar    
  21 C21            5.3718    -2.0263     1.0382 C.ar    
  22 C22            4.1473    -1.3874     1.0529 C.ar    
  23 C23            6.7282    -0.9761    -2.3047 C.2     
  24 N24            7.8756    -1.5727    -2.3094 N.2     
  25 O25            8.7391    -1.4380    -3.4235 O.3     
  26 N26           10.0007    -2.1668    -3.2901 N.3     
  27 O27            1.3084    -2.0292    -0.0209 O.3     
  28 Cl28          -4.0154    -0.0609     0.0415 Cl      
  29 H29            1.1328     3.0595     0.0073 H       
  30 H30           -2.4962    -2.0531     1.9584 H       
  31 H31           -2.9122    -4.4775     1.9391 H       
  32 H32           -2.2531    -5.8277    -0.0090 H       
  33 H33           -1.1753    -4.7626    -1.9471 H       
  34 H34           -0.7599    -2.3380    -1.9504 H       
  35 H35            4.2875     0.1275    -1.9800 H       
  36 H36            7.1715    -2.3921    -0.0514 H       
  37 H37            5.6740    -2.6288     1.8821 H       
  38 H38            3.4956    -1.4917     1.9077 H       
  39 H39            6.4286    -0.3752    -3.1506 H       
  40 H40            9.8355    -3.1462    -3.1126 H       
  41 H41           10.5796    -2.0399    -4.1067 H       
  42 H42            2.2056    -2.3897    -0.0315 H       
@<TRIPOS>BOND
   1    1    2 2
   2    1    6 1
   3    1    9 1
   4    2    3 1
   5    2    7 1
   6    3    4 2
   7    3   27 1
   8    4    5 1
   9    4   17 1
  10    5    6 am
  11    5   10 2
  12    6   29 1
  13    7    8 2
  14    7   11 1
  15    8    9 1
  16    8   28 1
  17   11   12 ar
  18   11   16 ar
  19   12   13 ar
  20   12   30 1
  21   13   14 ar
  22   13   31 1
  23   14   15 ar
  24   14   32 1
  25   15   16 ar
  26   15   33 1
  27   16   34 1
  28   17   18 ar
  29   17   22 ar
  30   18   19 ar
  31   18   35 1
  32   19   20 ar
  33   19   23 1
  34   20   21 ar
  35   20   36 1
  36   21   22 ar
  37   21   37 1
  38   22   38 1
  39   23   24 2
  40   23   39 1
  41   24   25 1
  42   25   26 1
  43   26   40 1
  44   26   41 1
  45   27   42 1

#	End of record

