#	Name: ASD06170316
#	Creating user name:	WinNT
#	Creation time:	15. 06. 2019 21:05

#	Modifying user name:	WinNT
#	Modification time:	15. 06. 2019 21:05

#	Program:	/corina/corina34_cracker 3.40 0067  02.08.2006

@<TRIPOS>MOLECULE
ASD06170316
  66   70    0    0    0
SMALL
NO_CHARGES


@<TRIPOS>ATOM
   1 N1             0.0475     1.0177     0.0772 N.am    
   2 N2             0.3307    -0.2753     0.5270 N.pl3   
   3 C3             1.6491    -0.5231     0.4106 C.2     
   4 C4             2.2610     0.5974    -0.1167 C.2     
   5 C5             1.1985     1.5934    -0.3279 C.2     
   6 C6             3.6899     0.7624    -0.4085 C.2     
   7 O7             4.4658    -0.1477    -0.1838 O.2     
   8 N8             4.1427     1.9219    -0.9252 N.am    
   9 C9            -0.6601    -1.2205     1.0479 C.3     
  10 C10            2.3407    -1.8066     0.7919 C.3     
  11 C11            5.5138     2.1300    -1.0759 C.ar    
  12 C12            6.3731     1.0386    -1.1277 C.ar    
  13 C13            7.7311     1.2564    -1.2773 C.ar    
  14 C14            8.1861     2.5690    -1.3707 C.ar    
  15 C15            7.2705     3.6079    -1.3112 C.ar    
  16 N16            5.9815     3.3642    -1.1734 N.ar    
  17 O17            9.5126     2.8285    -1.5180 O.3     
  18 N18           11.1386     2.4092    -5.2849 N.ar    
  19 C19           11.9302     2.8513    -4.3005 C.ar    
  20 C20           11.4108     3.0097    -2.9925 C.ar    
  21 C21           10.0541     2.6937    -2.7534 C.ar    
  22 C22            9.2955     2.2419    -3.8191 C.ar    
  23 C23            9.8775     2.1134    -5.0737 C.ar    
  24 O24            1.3318     2.7155    -0.7794 O.2     
  25 C25           -1.2180     1.6127     0.0465 C.ar    
  26 C26           -2.0427     1.5513     1.1617 C.ar    
  27 C27           12.2425     3.4723    -1.9622 C.ar    
  28 C28           13.5451     3.7669    -2.2238 C.ar    
  29 C29           14.0681     3.6147    -3.5112 C.ar    
  30 C30           13.2774     3.1628    -4.5435 C.ar    
  31 C31           16.1404     4.3810    -2.6351 C.3     
  32 O32           15.3714     3.9165    -3.7464 O.3     
  33 C33           -1.1013    -2.1654    -0.0716 C.3     
  34 C34           -3.2929     2.1405     1.1280 C.ar    
  35 C35           -3.7220     2.7901    -0.0160 C.ar    
  36 C36           -2.9022     2.8524    -1.1279 C.ar    
  37 C37           -1.6499     2.2711    -1.0980 C.ar    
  38 O38           -1.6801    -1.4065    -1.1351 O.3     
  39 Cl39          -4.3254     2.0647     2.5215 Cl      
  40 C40           -2.1359    -3.1526     0.4724 C.3     
  41 H41            3.5152     2.6116    -1.1924 H       
  42 H42           -0.2186    -1.7994     1.8591 H       
  43 H43           -1.5244    -0.6716     1.4218 H       
  44 H44            2.3552    -2.4800    -0.0652 H       
  45 H45            3.3632    -1.5903     1.1014 H       
  46 H46            1.8038    -2.2779     1.6151 H       
  47 H47            5.9855     0.0334    -1.0517 H       
  48 H48            8.4222     0.4275    -1.3203 H       
  49 H49            7.6161     4.6286    -1.3826 H       
  50 H50            8.2549     1.9907    -3.6760 H       
  51 H51            9.2759     1.7599    -5.8980 H       
  52 H52           -1.7081     1.0437     2.0543 H       
  53 H53           11.8499     3.5947    -0.9635 H       
  54 H54           14.1821     4.1228    -1.4276 H       
  55 H55           13.6912     3.0483    -5.5345 H       
  56 H56           15.6947     5.2944    -2.2412 H       
  57 H57           16.1524     3.6177    -1.8571 H       
  58 H58           17.1608     4.5852    -2.9594 H       
  59 H59           -0.2369    -2.7143    -0.4455 H       
  60 H60           -4.6993     3.2491    -0.0407 H       
  61 H61           -3.2399     3.3601    -2.0192 H       
  62 H62           -1.0102     2.3207    -1.9667 H       
  63 H63           -1.9831    -1.9422    -1.8810 H       
  64 H64           -1.6944    -3.7315     1.2836 H       
  65 H65           -3.0003    -2.6037     0.8462 H       
  66 H66           -2.4502    -3.8258    -0.3252 H       
@<TRIPOS>BOND
   1    1    2 1
   2    1    5 am
   3    1   25 1
   4    2    3 1
   5    2    9 1
   6    3    4 2
   7    3   10 1
   8    4    5 1
   9    4    6 1
  10    5   24 2
  11    6    7 2
  12    6    8 am
  13    8   11 1
  14    8   41 1
  15    9   33 1
  16    9   42 1
  17    9   43 1
  18   10   44 1
  19   10   45 1
  20   10   46 1
  21   11   12 ar
  22   11   16 ar
  23   12   13 ar
  24   12   47 1
  25   13   14 ar
  26   13   48 1
  27   14   15 ar
  28   14   17 1
  29   15   16 ar
  30   15   49 1
  31   17   21 1
  32   18   19 ar
  33   18   23 ar
  34   19   20 ar
  35   19   30 ar
  36   20   21 ar
  37   20   27 ar
  38   21   22 ar
  39   22   23 ar
  40   22   50 1
  41   23   51 1
  42   25   26 ar
  43   25   37 ar
  44   26   34 ar
  45   26   52 1
  46   27   28 ar
  47   27   53 1
  48   28   29 ar
  49   28   54 1
  50   29   30 ar
  51   29   32 1
  52   30   55 1
  53   31   32 1
  54   31   56 1
  55   31   57 1
  56   31   58 1
  57   33   38 1
  58   33   40 1
  59   33   59 1
  60   34   35 ar
  61   34   39 1
  62   35   36 ar
  63   35   60 1
  64   36   37 ar
  65   36   61 1
  66   37   62 1
  67   38   63 1
  68   40   64 1
  69   40   65 1
  70   40   66 1

#	End of record

