#	Name: ASD01150528
#	Creating user name:	WinNT
#	Creation time:	15. 06. 2019 19:04

#	Modifying user name:	WinNT
#	Modification time:	15. 06. 2019 19:04

#	Program:	/corina/corina34_cracker 3.40 0067  02.08.2006

@<TRIPOS>MOLECULE
ASD01150528
  49   51    0    0    0
SMALL
NO_CHARGES


@<TRIPOS>ATOM
   1 C1             0.4933     1.3919    -0.9465 C.ar    
   2 C2             0.4639     0.0109    -0.9224 C.ar    
   3 C3             1.9479     0.0102     0.9677 C.ar    
   4 C4             1.9789     1.3966     0.9446 C.ar    
   5 C5             1.2509     2.0887    -0.0132 C.ar    
   6 N6             1.2801     3.4880    -0.0392 N.am    
   7 C7             0.1264     4.1736    -0.1217 C.2     
   8 N8             0.1177     5.5194    -0.1489 N.am    
   9 C9             1.2790     6.2039    -0.0930 C.2     
  10 C10            2.5443     5.4601    -0.0027 C.2     
  11 N11            2.5098     4.1538     0.0269 N.2     
  12 O12            1.2793     7.4207    -0.1175 O.2     
  13 C13           -1.1538     6.2413    -0.2397 C.3     
  14 O14           -0.9269     3.5677    -0.1731 O.2     
  15 C15           -1.6751     6.5169     1.1472 C.ar    
  16 O16            3.7301     6.1204     0.0551 O.3     
  17 C17            4.9130     5.3233     0.1416 C.3     
  18 C18            1.1883    -0.6824     0.0308 C.ar    
  19 C19           -1.3232     7.6851     1.7968 C.ar    
  20 C20           -1.7994     7.9412     3.0689 C.ar    
  21 C21           -2.6312     7.0255     3.6943 C.ar    
  22 C22           -2.9842     5.8516     3.0400 C.ar    
  23 C23           -2.5093     5.6032     1.7652 C.ar    
  24 N24            2.6816    -0.6915     1.9324 N.am    
  25 C25            2.9446    -0.1217     3.1251 C.2     
  26 O26            2.6215     1.0289     3.3320 O.2     
  27 C27            3.6402    -0.9142     4.2018 C.3     
  28 F28           -3.7943     4.9565     3.6464 F       
  29 F29            1.1574    -2.0329     0.0519 F       
  30 O30           -3.1004     7.2753     4.9456 O.3     
  31 C31           -2.6958     8.5017     5.5573 C.3     
  32 F32           -3.1251     9.5778     4.7732 F       
  33 F33           -3.2649     8.5971     6.8318 F       
  34 F34           -1.3014     8.5309     5.6659 F       
  35 H35           -0.0696     1.9304    -1.6945 H       
  36 H36           -0.1260    -0.5284    -1.6487 H       
  37 H37            2.5683     1.9367     1.6708 H       
  38 H38           -0.9995     7.1844    -0.7639 H       
  39 H39           -1.8771     5.6360    -0.7861 H       
  40 H40            5.7871     5.9733     0.1810 H       
  41 H41            4.8740     4.7118     1.0432 H       
  42 H42            4.9802     4.6767    -0.7333 H       
  43 H43           -0.6749     8.3985     1.3100 H       
  44 H44           -1.5233     8.8542     3.5755 H       
  45 H45           -2.7829     4.6912     1.2554 H       
  46 H46            3.0005    -1.5876     1.7421 H       
  47 H47            3.8502    -1.9190     3.8351 H       
  48 H48            4.5754    -0.4220     4.4685 H       
  49 H49            2.9981    -0.9749     5.0805 H       
@<TRIPOS>BOND
   1    1    2 ar
   2    1    5 ar
   3    1   35 1
   4    2   18 ar
   5    2   36 1
   6    3    4 ar
   7    3   24 1
   8    3   18 ar
   9    4    5 ar
  10    4   37 1
  11    5    6 1
  12    6    7 am
  13    6   11 1
  14    7    8 am
  15    7   14 2
  16    8    9 am
  17    8   13 1
  18    9   10 1
  19    9   12 2
  20   10   11 2
  21   10   16 1
  22   13   15 1
  23   13   38 1
  24   13   39 1
  25   15   19 ar
  26   15   23 ar
  27   16   17 1
  28   17   40 1
  29   17   41 1
  30   17   42 1
  31   18   29 1
  32   19   20 ar
  33   19   43 1
  34   20   21 ar
  35   20   44 1
  36   21   22 ar
  37   21   30 1
  38   22   23 ar
  39   22   28 1
  40   23   45 1
  41   24   25 am
  42   24   46 1
  43   25   26 2
  44   25   27 1
  45   27   47 1
  46   27   48 1
  47   27   49 1
  48   30   31 1
  49   31   32 1
  50   31   33 1
  51   31   34 1

#	End of record

