#	Name: ASD04882068
#	Creating user name:	WinNT
#	Creation time:	15. 06. 2019 20:54

#	Modifying user name:	WinNT
#	Modification time:	15. 06. 2019 20:54

#	Program:	/corina/corina34_cracker 3.40 0067  02.08.2006

@<TRIPOS>MOLECULE
ASD04882068
  74   78    0    0    0
SMALL
NO_CHARGES


@<TRIPOS>ATOM
   1 N1            -0.1160     1.5341    -0.0531 N.am    
   2 C2            -0.0620     0.1342    -0.0548 C.ar    
   3 C3            -1.2398    -0.6114     0.0463 C.ar    
   4 C4            -1.1877    -2.0006     0.0447 C.ar    
   5 C5             0.0241    -2.6472    -0.0568 C.ar    
   6 C6             1.2058    -1.9077    -0.1587 C.ar    
   7 C7             1.1557    -0.5109    -0.1621 C.ar    
   8 N8            -2.4672     0.0382     0.1492 N.3     
   9 C9            -2.5698     0.7720     1.4177 C.3     
  10 N10           -4.9881     0.7347     1.1112 N.am    
  11 C11           -3.8495     1.6150     1.4142 C.3     
  12 C12            0.8789     2.2462     0.5122 C.2     
  13 O13            1.7715     1.6753     1.1113 O.2     
  14 C14            0.8860     3.7085     0.4055 C.2     
  15 C15            2.5037    -2.6006    -0.2669 C.2     
  16 N16            2.5506    -3.9475    -0.2677 N.am    
  17 O17            3.5312    -1.9564    -0.3555 O.2     
  18 C18           -6.0831     0.7247     1.8968 C.2     
  19 O19           -7.1156    -0.0885     1.6027 O.3     
  20 C20            1.8286     4.5468     0.9287 C.2     
  21 C21            3.8395    -4.6356    -0.3751 C.3     
  22 C22            3.6133    -6.1486    -0.3524 C.3     
  23 C23            4.9594    -6.8672    -0.4646 C.3     
  24 N24            4.7429    -8.3159    -0.4428 N.am    
  25 C25            4.5376    -9.0687    -1.5373 C.2     
  26 C26            4.7285    -9.1328     0.7764 C.3     
  27 C27            4.0500   -10.4612     0.3745 C.3     
  28 C28            4.3422   -10.5164    -1.1440 C.3     
  29 O29            4.5121    -8.6484    -2.6747 O.2     
  30 C30            1.4415     5.8522     0.5879 C.2     
  31 C31            0.2942     5.7550    -0.1193 C.2     
  32 O32           -0.0345     4.4614    -0.2317 O.3     
  33 C33           -4.9000    -0.1345    -0.0720 C.3     
  34 C34           -3.5790    -0.9087    -0.0101 C.3     
  35 O35           -6.1389     1.4495     2.8706 O.2     
  36 C36           -8.2305     0.0267     2.3719 C.ar    
  37 C37           -9.0853     1.1055     2.1990 C.ar    
  38 C38          -10.2177     1.2204     2.9819 C.ar    
  39 C39          -10.4993     0.2613     3.9372 C.ar    
  40 C40           -9.6488    -0.8149     4.1114 C.ar    
  41 C41           -8.5182    -0.9372     3.3271 C.ar    
  42 H42           -0.8675     1.9909    -0.4623 H       
  43 H43           -2.0994    -2.5741     0.1237 H       
  44 H44            0.0613    -3.7265    -0.0574 H       
  45 H45            2.0671     0.0631    -0.2411 H       
  46 H46           -2.6029     0.0640     2.2458 H       
  47 H47           -1.7044     1.4249     1.5312 H       
  48 H48           -3.9900     2.0712     2.3941 H       
  49 H49           -3.7743     2.3916     0.6531 H       
  50 H50            1.7309    -4.4614    -0.1970 H       
  51 H51            2.7024     4.2607     1.4952 H       
  52 H52            4.3244    -4.3547    -1.3101 H       
  53 H53            4.4746    -4.3505     0.4636 H       
  54 H54            3.1284    -6.4295     0.5826 H       
  55 H55            2.9782    -6.4337    -1.1911 H       
  56 H56            5.4444    -6.5863    -1.3995 H       
  57 H57            5.5945    -6.5821     0.3741 H       
  58 H58            5.7467    -9.3178     1.1186 H       
  59 H59            4.1520    -8.6358     1.5567 H       
  60 H60            4.5091   -11.3051     0.8894 H       
  61 H61            2.9777   -10.4253     0.5668 H       
  62 H62            3.4961   -10.9465    -1.6799 H       
  63 H63            5.2488   -11.0897    -1.3375 H       
  64 H64            1.9626     6.7631     0.8430 H       
  65 H65           -0.2638     6.5836    -0.5298 H       
  66 H66           -5.7351    -0.8350    -0.0748 H       
  67 H67           -4.9258     0.4739    -0.9761 H       
  68 H68           -3.4455    -1.4746    -0.9320 H       
  69 H69           -3.5980    -1.5933     0.8379 H       
  70 H70           -8.8656     1.8551     1.4532 H       
  71 H71          -10.8833     2.0603     2.8480 H       
  72 H72          -11.3849     0.3531     4.5486 H       
  73 H73           -9.8710    -1.5627     4.8582 H       
  74 H74           -7.8544    -1.7782     3.4632 H       
@<TRIPOS>BOND
   1    1    2 1
   2    1   12 am
   3    1   42 1
   4    2    3 ar
   5    2    7 ar
   6    3    4 ar
   7    3    8 1
   8    4    5 ar
   9    4   43 1
  10    5    6 ar
  11    5   44 1
  12    6    7 ar
  13    6   15 1
  14    7   45 1
  15    8    9 1
  16    8   34 1
  17    9   11 1
  18    9   46 1
  19    9   47 1
  20   10   11 1
  21   10   18 am
  22   10   33 1
  23   11   48 1
  24   11   49 1
  25   12   13 2
  26   12   14 1
  27   14   20 2
  28   14   32 1
  29   15   16 am
  30   15   17 2
  31   16   21 1
  32   16   50 1
  33   18   19 1
  34   18   35 2
  35   19   36 1
  36   20   30 1
  37   20   51 1
  38   21   22 1
  39   21   52 1
  40   21   53 1
  41   22   23 1
  42   22   54 1
  43   22   55 1
  44   23   24 1
  45   23   56 1
  46   23   57 1
  47   24   25 am
  48   24   26 1
  49   25   29 2
  50   25   28 1
  51   26   27 1
  52   26   58 1
  53   26   59 1
  54   27   28 1
  55   27   60 1
  56   27   61 1
  57   28   62 1
  58   28   63 1
  59   30   31 2
  60   30   64 1
  61   31   32 1
  62   31   65 1
  63   33   34 1
  64   33   66 1
  65   33   67 1
  66   34   68 1
  67   34   69 1
  68   36   37 ar
  69   36   41 ar
  70   37   38 ar
  71   37   70 1
  72   38   39 ar
  73   38   71 1
  74   39   40 ar
  75   39   72 1
  76   40   41 ar
  77   40   73 1
  78   41   74 1

#	End of record

