#	Name: ASD03320044
#	Creating user name:	WinNT
#	Creation time:	15. 06. 2019 20:36

#	Modifying user name:	WinNT
#	Modification time:	15. 06. 2019 20:36

#	Program:	/corina/corina34_cracker 3.40 0067  02.08.2006

@<TRIPOS>MOLECULE
ASD03320044
  52   55    0    0    0
SMALL
NO_CHARGES


@<TRIPOS>ATOM
   1 C1             0.5861     0.8721    -1.2036 C.2     
   2 C2             0.4033    -0.5512    -0.8602 C.ar    
   3 C3             1.2111    -1.1558     0.1122 C.ar    
   4 C4             0.9994    -2.5009     0.4011 C.ar    
   5 C5            -0.0097    -3.1953    -0.2894 C.ar    
   6 N6            -0.7497    -2.5831    -1.2014 N.ar    
   7 C7            -0.5807    -1.3110    -1.4960 C.ar    
   8 O8             1.4420     1.5281    -0.6415 O.2     
   9 N9            -0.1918     1.4437    -2.1441 N.am    
  10 N10            3.1639    -3.4253     1.3470 N.pl3   
  11 N11            3.5407    -4.1005     2.5150 N.2     
  12 C12            2.4778    -4.2663     3.2606 C.2     
  13 C13            1.3818    -3.7067     2.6036 C.2     
  14 C14            1.8235    -3.1892     1.4183 C.2     
  15 C15           -0.0372    -3.6786     3.1104 C.3     
  16 N16           -0.2314    -4.5319    -0.0137 N.3     
  17 C17           -1.6482    -4.7759     0.3137 C.3     
  18 C18           -2.1680    -5.8431    -0.6723 C.3     
  19 C19           -0.8691    -6.5559    -1.1325 C.3     
  20 C20            0.1378    -5.3793    -1.1675 C.3     
  21 O21           -3.0403    -6.7609    -0.0098 O.3     
  22 C22           -0.0953     2.8187    -2.3917 C.ar    
  23 C23           -0.4416     3.3263    -3.6369 C.ar    
  24 C24           -0.3467     4.6823    -3.8801 C.ar    
  25 C25            0.0946     5.5373    -2.8808 C.ar    
  26 C26            0.4412     5.0309    -1.6367 C.ar    
  27 C27            0.3413     3.6759    -1.3902 C.ar    
  28 O28            0.1879     6.8724    -3.1210 O.3     
  29 C29            0.6496     7.6941    -2.0470 C.3     
  30 F30           -0.2183     7.5680    -0.9570 F       
  31 F31            1.9344     7.2895    -1.6693 F       
  32 Cl32           0.6947     9.4149    -2.5833 Cl      
  33 H33            1.9779    -0.5930     0.6238 H       
  34 H34           -1.2092    -0.8497    -2.2434 H       
  35 H35           -0.8185     0.9027    -2.6495 H       
  36 H36            3.7522    -3.1683     0.6198 H       
  37 H37            2.4533    -4.7550     4.2234 H       
  38 H38           -0.2163    -2.7415     3.6374 H       
  39 H39           -0.7252    -3.7594     2.2688 H       
  40 H40           -0.1964    -4.5147     3.7913 H       
  41 H41           -1.7346    -5.1425     1.3365 H       
  42 H42           -2.2194    -3.8548     0.1982 H       
  43 H43           -2.6707    -5.3741    -1.5181 H       
  44 H44           -0.5615    -7.3117    -0.4100 H       
  45 H45           -0.9937    -6.9928    -2.1233 H       
  46 H46            0.0355    -4.8198    -2.0974 H       
  47 H47            1.1572    -5.7488    -1.0562 H       
  48 H48           -3.3947    -7.4522    -0.5856 H       
  49 H49           -0.7848     2.6607    -4.4151 H       
  50 H50           -0.6156     5.0772    -4.8487 H       
  51 H51            0.7850     5.6971    -0.8593 H       
  52 H52            0.6066     3.2823    -0.4201 H       
@<TRIPOS>BOND
   1    1    2 1
   2    1    8 2
   3    1    9 am
   4    2    3 ar
   5    2    7 ar
   6    3    4 ar
   7    3   33 1
   8    4    5 ar
   9    4   14 1
  10    5    6 ar
  11    5   16 1
  12    6    7 ar
  13    7   34 1
  14    9   22 1
  15    9   35 1
  16   10   11 1
  17   10   14 1
  18   10   36 1
  19   11   12 2
  20   12   13 1
  21   12   37 1
  22   13   14 2
  23   13   15 1
  24   15   38 1
  25   15   39 1
  26   15   40 1
  27   16   17 1
  28   16   20 1
  29   17   18 1
  30   17   41 1
  31   17   42 1
  32   18   19 1
  33   18   21 1
  34   18   43 1
  35   19   20 1
  36   19   44 1
  37   19   45 1
  38   20   46 1
  39   20   47 1
  40   21   48 1
  41   22   23 ar
  42   22   27 ar
  43   23   24 ar
  44   23   49 1
  45   24   25 ar
  46   24   50 1
  47   25   26 ar
  48   25   28 1
  49   26   27 ar
  50   26   51 1
  51   27   52 1
  52   28   29 1
  53   29   30 1
  54   29   31 1
  55   29   32 1

#	End of record

