#	Name: ASD08070600
#	Creating user name:	WinNT
#	Creation time:	15. 06. 2019 21:15

#	Modifying user name:	WinNT
#	Modification time:	15. 06. 2019 21:15

#	Program:	/corina/corina34_cracker 3.40 0067  02.08.2006

@<TRIPOS>MOLECULE
ASD08070600
  45   46    0    0    0
SMALL
NO_CHARGES


@<TRIPOS>ATOM
   1 O1            -0.0161     1.3382     0.0094 O.3     
   2 C2             0.0021    -0.0041     0.0020 C.2     
   3 N3             1.2257    -0.4389    -0.0120 N.2     
   4 C4             2.0700     0.6290    -0.0143 C.ar    
   5 C5             1.2607     1.7778    -0.0004 C.ar    
   6 C6             3.4559     0.7611    -0.0269 C.ar    
   7 C7             4.0228     2.0327    -0.0255 C.ar    
   8 C8             3.2023     3.1671    -0.0111 C.ar    
   9 C9             1.8428     3.0385     0.0008 C.ar    
  10 C10            5.4920     2.1853    -0.0387 C.2     
  11 O11            6.2053     1.2009    -0.0508 O.2     
  12 N12            6.0418     3.4159    -0.0373 N.am    
  13 C13            7.4989     3.5672    -0.0504 C.3     
  14 C14            7.8653     4.9235    -0.6563 C.3     
  15 C15            7.4417     4.9566    -2.1261 C.3     
  16 C16            7.8082     6.3129    -2.7320 C.3     
  17 C17            8.0328     3.4871     1.3811 C.3     
  18 C18            7.7763     2.0875     1.9436 C.3     
  19 C19            8.3102     2.0074     3.3751 C.3     
  20 C20           -1.2231    -0.8815     0.0095 C.3     
  21 C21           -1.6238    -1.1857     1.4544 C.3     
  22 H22            4.0862    -0.1159    -0.0373 H       
  23 H23            3.6477     4.1510    -0.0093 H       
  24 H24            1.2186     3.9198     0.0115 H       
  25 H25            5.4727     4.2013    -0.0277 H       
  26 H26            7.9415     2.7706    -0.6484 H       
  27 H27            7.3510     5.7155    -0.1120 H       
  28 H28            8.9425     5.0740    -0.5852 H       
  29 H29            7.9560     4.1646    -2.6705 H       
  30 H30            6.3645     4.8061    -2.1973 H       
  31 H31            7.2939     7.1049    -2.1877 H       
  32 H32            8.8854     6.4635    -2.6609 H       
  33 H33            7.5064     6.3366    -3.7791 H       
  34 H34            9.1042     3.6879     1.3811 H       
  35 H35            7.5247     4.2263     2.0003 H       
  36 H36            6.7049     1.8867     1.9436 H       
  37 H37            8.2844     1.3483     1.3244 H       
  38 H38            7.8021     2.7467     3.9944 H       
  39 H39            8.1275     1.0104     3.7759 H       
  40 H40            9.3816     2.2082     3.3751 H       
  41 H41           -2.0416    -0.3669    -0.4939 H       
  42 H42           -1.0053    -1.8140    -0.5112 H       
  43 H43           -0.8053    -1.7003     1.9578 H       
  44 H44           -1.8416    -0.2532     1.9750 H       
  45 H45           -2.5100    -1.8203     1.4598 H       
@<TRIPOS>BOND
   1    1    2 1
   2    1    5 1
   3    2    3 2
   4    2   20 1
   5    3    4 1
   6    4    5 ar
   7    4    6 ar
   8    5    9 ar
   9    6    7 ar
  10    6   22 1
  11    7    8 ar
  12    7   10 1
  13    8    9 ar
  14    8   23 1
  15    9   24 1
  16   10   11 2
  17   10   12 am
  18   12   13 1
  19   12   25 1
  20   13   14 1
  21   13   17 1
  22   13   26 1
  23   14   15 1
  24   14   27 1
  25   14   28 1
  26   15   16 1
  27   15   29 1
  28   15   30 1
  29   16   31 1
  30   16   32 1
  31   16   33 1
  32   17   18 1
  33   17   34 1
  34   17   35 1
  35   18   19 1
  36   18   36 1
  37   18   37 1
  38   19   38 1
  39   19   39 1
  40   19   40 1
  41   20   21 1
  42   20   41 1
  43   20   42 1
  44   21   43 1
  45   21   44 1
  46   21   45 1

#	End of record

