#	Name: ASD01918375
#	Creating user name:	WinNT
#	Creation time:	15. 06. 2019 20:11

#	Modifying user name:	WinNT
#	Modification time:	15. 06. 2019 20:11

#	Program:	/corina/corina34_cracker 3.40 0067  02.08.2006

@<TRIPOS>MOLECULE
ASD01918375
  44   45    0    0    0
SMALL
NO_CHARGES


@<TRIPOS>ATOM
   1 Cl1            0.0000     0.0000     0.0000 Cl      
   2 H2             0.0000     1.3700     0.0000 H       
   3 C3             6.5332    13.9376     8.3066 C.3     
   4 C4             6.5540    12.4078     8.2982 C.3     
   5 N5             7.2415    11.9340     7.0896 N.3     
   6 C6             6.4933    12.3015     5.8800 C.3     
   7 C7             8.6179    12.4444     7.0327 C.3     
   8 C8             7.2828    11.9086     9.5191 C.2     
   9 N9             6.7402    11.3741    10.5845 N.2     
  10 C10            7.7713    11.0819    11.4096 C.2     
  11 N11            8.8689    11.4527    10.8020 N.2     
  12 O12            8.6050    11.9228     9.7155 O.3     
  13 C13            7.6755    10.4584    12.7518 C.ar    
  14 C14            6.4282    10.1098    13.2706 C.ar    
  15 C15            6.3374     9.5307    14.5158 C.ar    
  16 C16            7.4965     9.2916    15.2612 C.ar    
  17 C17            8.7460     9.6418    14.7393 C.ar    
  18 C18            8.8332    10.2159    13.4915 C.ar    
  19 C19            7.4040     8.6896    16.5572 C.1     
  20 C20            7.3282     8.1960    17.6197 C.1     
  21 C21            7.2357     7.5939    18.9157 C.ar    
  22 C22            5.9936     7.2306    19.4547 C.ar    
  23 C23            5.9519     6.6532    20.7060 C.ar    
  24 N24            7.0589     6.4422    21.3928 N.ar    
  25 C25            8.2484     6.7686    20.9235 C.ar    
  26 C26            8.3851     7.3458    19.6789 C.ar    
  27 H27            7.5558    14.3149     8.2989 H       
  28 H28            6.0060    14.2987     7.4236 H       
  29 H29            6.0230    14.2891     9.2034 H       
  30 H30            5.5314    12.0305     8.3059 H       
  31 H31            6.3996    13.3862     5.8263 H       
  32 H32            7.0244    11.9387     5.0000 H       
  33 H33            5.5008    11.8524     5.9162 H       
  34 H34            9.1699    12.0991     7.9068 H       
  35 H35            9.1039    12.0786     6.1282 H       
  36 H36            8.6010    13.5342     7.0207 H       
  37 H37            5.5334    10.2949    12.6949 H       
  38 H38            5.3716     9.2613    14.9173 H       
  39 H39            9.6421     9.4583    15.3136 H       
  40 H40            9.7982    10.4826    13.0865 H       
  41 H41            5.0836     7.4006    18.8986 H       
  42 H42            5.0000     6.3700    21.1303 H       
  43 H43            9.1274     6.5771    21.5211 H       
  44 H44            9.3621     7.6061    19.2995 H       
@<TRIPOS>BOND
   1    1    2 1
   2    3    4 1
   3    3   27 1
   4    3   28 1
   5    3   29 1
   6    4    5 1
   7    4    8 1
   8    4   30 1
   9    5    6 1
  10    5    7 1
  11    6   31 1
  12    6   32 1
  13    6   33 1
  14    7   34 1
  15    7   35 1
  16    7   36 1
  17    8   12 1
  18    8    9 2
  19    9   10 1
  20   10   11 2
  21   10   13 1
  22   11   12 1
  23   13   18 ar
  24   13   14 ar
  25   14   15 ar
  26   14   37 1
  27   15   16 ar
  28   15   38 1
  29   16   17 ar
  30   16   19 1
  31   17   18 ar
  32   17   39 1
  33   18   40 1
  34   19   20 3
  35   20   21 1
  36   21   26 ar
  37   21   22 ar
  38   22   23 ar
  39   22   41 1
  40   23   24 ar
  41   23   42 1
  42   24   25 ar
  43   25   26 ar
  44   25   43 1
  45   26   44 1

#	End of record

