#	Name: ASD01900952
#	Creating user name:	WinNT
#	Creation time:	15. 06. 2019 19:52

#	Modifying user name:	WinNT
#	Modification time:	15. 06. 2019 19:52

#	Program:	/corina/corina34_cracker 3.40 0067  02.08.2006

@<TRIPOS>MOLECULE
ASD01900952
  59   63    0    0    0
SMALL
NO_CHARGES


@<TRIPOS>ATOM
   1 C1             0.1364     0.8519    -0.2560 C.ar    
   2 C2             0.3153    -0.5029    -0.2924 C.ar    
   3 C3             1.5926    -1.0461    -0.4008 C.ar    
   4 C4             2.7049    -0.2182    -0.4665 C.ar    
   5 C5             2.5366     1.1531    -0.4250 C.ar    
   6 C6             1.2420     1.6981    -0.3298 C.ar    
   7 N7             3.6185     2.0256    -0.4681 N.pl3   
   8 C8             3.4245     3.3642    -1.0368 C.3     
   9 N9             2.1657     3.9396    -0.5618 N.am    
  10 C10            1.0966     3.1618    -0.3004 C.2     
  11 C11            4.5874     4.2668    -0.6138 C.3     
  12 C12            3.3968     3.2664    -2.5647 C.3     
  13 C13            3.2626     4.6708    -3.1578 C.3     
  14 N14            4.3946     5.4986    -2.7222 N.3     
  15 C15            4.4171     5.6432    -1.2612 C.3     
  16 C16            2.0705     5.3242    -0.3739 C.ar    
  17 C17            1.4202     6.1099    -1.3162 C.ar    
  18 C18            1.3268     7.4750    -1.1303 C.ar    
  19 C19            1.8827     8.0615    -0.0028 C.ar    
  20 C20            2.5324     7.2772     0.9390 C.ar    
  21 C21            2.6213     5.9112     0.7576 C.ar    
  22 C22            4.3708     6.8115    -3.3809 C.3     
  23 C23            5.4812     7.6694    -2.8312 C.2     
  24 O24            0.0198     3.6658    -0.0431 O.2     
  25 O25            1.7910     9.4059     0.1792 O.3     
  26 C26            2.3859     9.9425     1.3625 C.3     
  27 O27            1.7513    -2.3933    -0.4421 O.3     
  28 C28            0.5662    -3.1886    -0.3697 C.3     
  29 C29            6.7802     7.6004    -3.3058 C.2     
  30 C30            7.6408     8.4290    -2.7099 C.2     
  31 S31            6.8026     9.3630    -1.4776 S.3     
  32 C32            5.2859     8.5564    -1.8549 C.2     
  33 Cl33           9.3288     8.5636    -3.0924 Cl      
  34 H34           -0.8580     1.2654    -0.1750 H       
  35 H35           -0.5418    -1.1576    -0.2362 H       
  36 H36            3.6946    -0.6425    -0.5490 H       
  37 H37            4.4856     1.7543    -0.1282 H       
  38 H38            4.5905     4.3724     0.4710 H       
  39 H39            5.5288     3.8248    -0.9402 H       
  40 H40            4.3215     2.8093    -2.9170 H       
  41 H41            2.5477     2.6575    -2.8751 H       
  42 H42            3.2573     4.6065    -4.2458 H       
  43 H43            2.3307     5.1216    -2.8164 H       
  44 H44            3.4807     6.0889    -0.9258 H       
  45 H45            5.2490     6.2857    -0.9726 H       
  46 H46            0.9880     5.6536    -2.1945 H       
  47 H47            0.8210     8.0863    -1.8631 H       
  48 H48            2.9653     7.7345     1.8165 H       
  49 H49            3.1233     5.3001     1.4931 H       
  50 H50            4.5091     6.6821    -4.4543 H       
  51 H51            3.4118     7.2946    -3.1937 H       
  52 H52            1.9174     9.4957     2.2394 H       
  53 H53            3.4526     9.7184     1.3666 H       
  54 H54            2.2414    11.0226     1.3841 H       
  55 H55            0.0475    -2.9834     0.5667 H       
  56 H56           -0.0867    -2.9448    -1.2078 H       
  57 H57            0.8340    -4.2443    -0.4129 H       
  58 H58            7.0748     6.9273    -4.0974 H       
  59 H59            4.3409     8.7490    -1.3688 H       
@<TRIPOS>BOND
   1    1    2 ar
   2    1    6 ar
   3    1   34 1
   4    2    3 ar
   5    2   35 1
   6    3    4 ar
   7    3   27 1
   8    4    5 ar
   9    4   36 1
  10    5    7 1
  11    5    6 ar
  12    6   10 1
  13    7    8 1
  14    7   37 1
  15    8    9 1
  16    8   12 1
  17    8   11 1
  18    9   10 am
  19    9   16 1
  20   10   24 2
  21   11   15 1
  22   11   38 1
  23   11   39 1
  24   12   13 1
  25   12   40 1
  26   12   41 1
  27   13   14 1
  28   13   42 1
  29   13   43 1
  30   14   15 1
  31   14   22 1
  32   15   44 1
  33   15   45 1
  34   16   17 ar
  35   16   21 ar
  36   17   18 ar
  37   17   46 1
  38   18   19 ar
  39   18   47 1
  40   19   20 ar
  41   19   25 1
  42   20   21 ar
  43   20   48 1
  44   21   49 1
  45   22   23 1
  46   22   50 1
  47   22   51 1
  48   23   29 1
  49   23   32 2
  50   25   26 1
  51   26   52 1
  52   26   53 1
  53   26   54 1
  54   27   28 1
  55   28   55 1
  56   28   56 1
  57   28   57 1
  58   29   30 2
  59   29   58 1
  60   30   31 1
  61   30   33 1
  62   31   32 1
  63   32   59 1

#	End of record

