#	Name: ASD08830169
#	Creating user name:	WinNT
#	Creation time:	15. 06. 2019 21:19

#	Modifying user name:	WinNT
#	Modification time:	15. 06. 2019 21:19

#	Program:	/corina/corina34_cracker 3.40 0067  02.08.2006

@<TRIPOS>MOLECULE
ASD08830169
  42   45    0    0    0
SMALL
NO_CHARGES


@<TRIPOS>ATOM
   1 C1            -0.0185     1.5113     0.0104 C.3     
   2 C2             0.0021    -0.0041     0.0020 C.2     
   3 C3             0.2976     0.0501     2.4746 C.ar    
   4 N4            -0.0316     1.4025     2.4505 N.pl3   
   5 C5             0.3270    -0.6881     1.2654 C.ar    
   6 C6            -0.7342     1.9640     1.2911 C.3     
   7 C7             0.6557    -2.0346     1.2670 C.ar    
   8 C8             0.9610    -2.6670     2.4804 C.ar    
   9 C9             0.9278    -1.9219     3.6885 C.ar    
  10 C10            0.5914    -0.5584     3.6613 C.ar    
  11 C11            1.3010    -4.0317     2.5207 C.ar    
  12 C12            1.5931    -4.6184     3.7133 C.ar    
  13 C13            1.5602    -3.8870     4.8994 C.ar    
  14 C14            1.2353    -2.5652     4.9001 C.ar    
  15 O15           -0.2405    -0.6306    -1.0079 O.2     
  16 C16            1.4139     2.0489    -0.0004 C.3     
  17 N17            2.0660     1.6798    -1.2639 N.3     
  18 C18            3.3530     2.3740    -1.4151 C.3     
  19 C19            1.1877     1.9553    -2.4103 C.3     
  20 C20            1.8808     1.5018    -3.6979 C.3     
  21 O21            3.1436     2.1632    -3.8120 O.3     
  22 C22            4.0244     1.9163    -2.7127 C.3     
  23 H23           -0.5568     1.8779    -0.8636 H       
  24 H24            0.2028     1.9728     3.1993 H       
  25 H25           -0.7240     3.0524     1.3499 H       
  26 H26           -1.7639     1.6067     1.2798 H       
  27 H27            0.6762    -2.5917     0.3420 H       
  28 H28            0.5653     0.0092     4.5798 H       
  29 H29            1.3297    -4.6109     1.6096 H       
  30 H30            1.8539    -5.6661     3.7413 H       
  31 H31            1.7962    -4.3768     5.8325 H       
  32 H32            1.2142    -2.0126     5.8278 H       
  33 H33            1.3952     3.1346     0.0951 H       
  34 H34            1.9692     1.6202     0.8338 H       
  35 H35            3.1839     3.4501    -1.4528 H       
  36 H36            3.9968     2.1356    -0.5685 H       
  37 H37            0.2509     1.4112    -2.2901 H       
  38 H38            0.9840     3.0247    -2.4639 H       
  39 H39            2.0362     0.4233    -3.6671 H       
  40 H40            1.2579     1.7560    -4.5554 H       
  41 H41            4.9518     2.4703    -2.8577 H       
  42 H42            4.2422     0.8499    -2.6532 H       
@<TRIPOS>BOND
   1    1    2 1
   2    1   16 1
   3    1    6 1
   4    1   23 1
   5    2    5 1
   6    2   15 2
   7    3    4 1
   8    3    5 ar
   9    3   10 ar
  10    4    6 1
  11    4   24 1
  12    5    7 ar
  13    6   25 1
  14    6   26 1
  15    7    8 ar
  16    7   27 1
  17    8    9 ar
  18    8   11 ar
  19    9   10 ar
  20    9   14 ar
  21   10   28 1
  22   11   12 ar
  23   11   29 1
  24   12   13 ar
  25   12   30 1
  26   13   14 ar
  27   13   31 1
  28   14   32 1
  29   16   17 1
  30   16   33 1
  31   16   34 1
  32   17   18 1
  33   17   19 1
  34   18   22 1
  35   18   35 1
  36   18   36 1
  37   19   20 1
  38   19   37 1
  39   19   38 1
  40   20   21 1
  41   20   39 1
  42   20   40 1
  43   21   22 1
  44   22   41 1
  45   22   42 1

#	End of record

