#	Name: ASD01811009
#	Creating user name:	WinNT
#	Creation time:	15. 06. 2019 19:25

#	Modifying user name:	WinNT
#	Modification time:	15. 06. 2019 19:25

#	Program:	/corina/corina34_cracker 3.40 0067  02.08.2006

@<TRIPOS>MOLECULE
ASD01811009
  51   53    0    0    0
SMALL
NO_CHARGES


@<TRIPOS>ATOM
   1 C1            -0.0119    -0.0041    -0.0844 C.1     
   2 C2            -0.0291     1.4276    -0.0599 C.ar    
   3 C3             1.1697     2.1434    -0.0482 C.ar    
   4 C4             1.1458     3.5224    -0.0245 C.ar    
   5 C5            -0.0625     4.1964    -0.0119 C.ar    
   6 C6            -1.2542     3.4934    -0.0229 C.ar    
   7 C7            -1.2449     2.1143    -0.0533 C.ar    
   8 N8             0.0018    -1.1398    -0.1038 N.1     
   9 N9            -1.3600     8.2253     0.0601 N.am    
  10 C10           -0.7955     7.7577    -1.2132 C.3     
  11 C11           -0.8092     6.2259    -1.2258 C.3     
  12 C12           -0.0807     5.7031     0.0144 C.3     
  13 C13           -0.8059     6.1823     1.2740 C.3     
  14 C14           -0.7922     7.7136     1.3149 C.3     
  15 C15           -2.3758     9.1110     0.0769 C.2     
  16 C16           -2.9955     9.5009     1.3615 C.ar    
  17 C17           -4.3729     9.3550     1.5470 C.ar    
  18 C18           -4.9547     9.7183     2.7456 C.ar    
  19 C19           -4.1819    10.2280     3.7693 C.ar    
  20 C20           -2.8014    10.3803     3.5980 C.ar    
  21 C21           -2.2070    10.0088     2.3905 C.ar    
  22 O22           -2.7824     9.5892    -0.9640 O.2     
  23 C23           -4.8259    10.6217     5.0737 C.3     
  24 C24           -1.9777    10.9247     4.6895 C.2     
  25 O25           -0.7817    11.0559     4.5391 O.2     
  26 C26           -5.2259     8.8000     0.4356 C.3     
  27 C27           -5.1062     7.2749     0.4138 C.3     
  28 H28            2.1136     1.6185    -0.0573 H       
  29 H29            2.0723     4.0773    -0.0155 H       
  30 H30           -2.1939     4.0258    -0.0126 H       
  31 H31           -2.1758     1.5669    -0.0668 H       
  32 H32           -1.3969     8.1353    -2.0401 H       
  33 H33            0.2297     8.1148    -1.3114 H       
  34 H34           -1.8398     5.8712    -1.2189 H       
  35 H35           -0.3057     5.8649    -2.1226 H       
  36 H36            0.9426     6.0785     0.0198 H       
  37 H37           -1.8366     5.8280     1.2574 H       
  38 H38           -0.3002     5.7902     2.1564 H       
  39 H39            0.2332     8.0670     1.4229 H       
  40 H40           -1.3915     8.0620     2.1561 H       
  41 H41           -6.0198     9.6034     2.8825 H       
  42 H42           -1.1414    10.1190     2.2538 H       
  43 H43           -4.8319     9.7659     5.7488 H       
  44 H44           -4.2616    11.4373     5.5259 H       
  45 H45           -5.8500    10.9466     4.8898 H       
  46 H46           -2.4386    11.2074     5.6245 H       
  47 H47           -6.2661     9.0805     0.6013 H       
  48 H48           -4.8880     9.2046    -0.5184 H       
  49 H49           -4.0660     6.9944     0.2482 H       
  50 H50           -5.4441     6.8702     1.3679 H       
  51 H51           -5.7232     6.8734    -0.3901 H       
@<TRIPOS>BOND
   1    1    2 1
   2    1    8 3
   3    2    3 ar
   4    2    7 ar
   5    3    4 ar
   6    3   28 1
   7    4    5 ar
   8    4   29 1
   9    5    6 ar
  10    5   12 1
  11    6    7 ar
  12    6   30 1
  13    7   31 1
  14    9   10 1
  15    9   14 1
  16    9   15 am
  17   10   11 1
  18   10   32 1
  19   10   33 1
  20   11   12 1
  21   11   34 1
  22   11   35 1
  23   12   13 1
  24   12   36 1
  25   13   14 1
  26   13   37 1
  27   13   38 1
  28   14   39 1
  29   14   40 1
  30   15   16 1
  31   15   22 2
  32   16   17 ar
  33   16   21 ar
  34   17   18 ar
  35   17   26 1
  36   18   19 ar
  37   18   41 1
  38   19   20 ar
  39   19   23 1
  40   20   21 ar
  41   20   24 1
  42   21   42 1
  43   23   43 1
  44   23   44 1
  45   23   45 1
  46   24   25 2
  47   24   46 1
  48   26   27 1
  49   26   47 1
  50   26   48 1
  51   27   49 1
  52   27   50 1
  53   27   51 1

#	End of record

