#	Name: ASD03430046
#	Creating user name:	WinNT
#	Creation time:	15. 06. 2019 20:40

#	Modifying user name:	WinNT
#	Modification time:	15. 06. 2019 20:40

#	Program:	/corina/corina34_cracker 3.40 0067  02.08.2006

@<TRIPOS>MOLECULE
ASD03430046
  49   54    0    0    0
SMALL
NO_CHARGES


@<TRIPOS>ATOM
   1 C1            -0.0167     1.3826     0.0096 C.ar    
   2 C2             0.0021    -0.0041     0.0020 C.ar    
   3 C3             1.2023    -0.6818    -0.0146 C.ar    
   4 C4             2.4085     0.0133    -0.0144 C.ar    
   5 C5             2.3860     1.4039    -0.0117 C.ar    
   6 C6             1.1811     2.0871     0.0020 C.ar    
   7 O7             3.4713    -0.8414    -0.0030 O.3     
   8 C8             1.5510    -2.1456    -0.0476 C.3     
   9 C9             3.0368    -2.1457    -0.4328 C.3     
  10 C10            0.4290    -3.8621     1.0088 C.ar    
  11 C11            1.3145    -2.8193     1.2714 C.ar    
  12 C12            0.7188    -2.9076    -1.0387 C.2     
  13 N13            0.1011    -3.8871    -0.3489 N.am    
  14 O14            0.6214    -2.6850    -2.2270 O.2     
  15 C15            1.7771    -2.5982     2.5490 C.ar    
  16 C16            1.3646    -3.4156     3.5868 C.ar    
  17 C17            0.4869    -4.4544     3.3374 C.ar    
  18 C18            0.0199    -4.6798     2.0588 C.ar    
  19 C19           -0.8083    -4.8642    -0.9527 C.3     
  20 O20           -1.2113     2.0361     0.0189 O.3     
  21 C21           -1.1865     3.4162     0.3992 C.3     
  22 C22           -0.0353     4.1000    -0.3507 C.3     
  23 O23            1.1865     3.4487     0.0119 O.3     
  24 C24           -2.2175    -4.3317    -0.9106 C.ar    
  25 C25           -2.7015    -3.5761    -1.9625 C.ar    
  26 C26           -3.9929    -3.0869    -1.9263 C.ar    
  27 C27           -4.8043    -3.3543    -0.8333 C.ar    
  28 C28           -4.3164    -4.1127     0.2209 C.ar    
  29 C29           -3.0261    -4.6044     0.1773 C.ar    
  30 O30           -6.0750    -2.8738    -0.7952 O.3     
  31 H31           -0.9269    -0.5549     0.0095 H       
  32 H32            3.3147     1.9551    -0.0199 H       
  33 H33            3.1573    -2.2581    -1.5103 H       
  34 H34            3.5751    -2.9285     0.1016 H       
  35 H35            2.4628    -1.7864     2.7415 H       
  36 H36            1.7277    -3.2427     4.5891 H       
  37 H37            0.1656    -5.0926     4.1472 H       
  38 H38           -0.6654    -5.4934     1.8719 H       
  39 H39           -0.5171    -5.0400    -1.9882 H       
  40 H40           -0.7569    -5.8003    -0.3968 H       
  41 H41           -2.1317     3.8885     0.1313 H       
  42 H42           -1.0253     3.4986     1.4741 H       
  43 H43           -0.1929     4.0113    -1.4256 H       
  44 H44            0.0118     5.1525    -0.0712 H       
  45 H45           -2.0693    -3.3679    -2.8130 H       
  46 H46           -4.3704    -2.4965    -2.7481 H       
  47 H47           -4.9461    -4.3223     1.0729 H       
  48 H48           -2.6457    -5.1948     0.9978 H       
  49 H49           -6.7326    -3.4698    -1.1792 H       
@<TRIPOS>BOND
   1    1    2 ar
   2    1    6 ar
   3    1   20 1
   4    2    3 ar
   5    2   31 1
   6    3    4 ar
   7    3    8 1
   8    4    5 ar
   9    4    7 1
  10    5    6 ar
  11    5   32 1
  12    6   23 1
  13    7    9 1
  14    8    9 1
  15    8   11 1
  16    8   12 1
  17    9   33 1
  18    9   34 1
  19   10   11 ar
  20   10   13 1
  21   10   18 ar
  22   11   15 ar
  23   12   13 am
  24   12   14 2
  25   13   19 1
  26   15   16 ar
  27   15   35 1
  28   16   17 ar
  29   16   36 1
  30   17   18 ar
  31   17   37 1
  32   18   38 1
  33   19   24 1
  34   19   39 1
  35   19   40 1
  36   20   21 1
  37   21   22 1
  38   21   41 1
  39   21   42 1
  40   22   23 1
  41   22   43 1
  42   22   44 1
  43   24   25 ar
  44   24   29 ar
  45   25   26 ar
  46   25   45 1
  47   26   27 ar
  48   26   46 1
  49   27   28 ar
  50   27   30 1
  51   28   29 ar
  52   28   47 1
  53   29   48 1
  54   30   49 1

#	End of record

