#	Name: ASD05250057
#	Creating user name:	WinNT
#	Creation time:	15. 06. 2019 20:58

#	Modifying user name:	WinNT
#	Modification time:	15. 06. 2019 20:58

#	Program:	/corina/corina34_cracker 3.40 0067  02.08.2006

@<TRIPOS>MOLECULE
ASD05250057
  19   18    0    0    0
SMALL
NO_CHARGES


@<TRIPOS>ATOM
   1 N1            -0.0178     1.4648     0.0101 N.3     
   2 C2             0.0021    -0.0041     0.0020 C.3     
   3 C3            -1.4333    -0.5336     0.0129 C.3     
   4 Se4           -1.4067    -2.4934     0.0021 Du      
   5 C5            -3.3254    -2.8936     0.0183 C.3     
   6 C6            -3.5302    -4.4098     0.0121 C.3     
   7 N7            -4.9682    -4.7097     0.0242 N.3     
   8 H8             0.9191     1.8392     0.0032 H       
   9 H9            -0.5563     1.8234    -0.7642 H       
  10 H10            0.5123    -0.3556    -0.8948 H       
  11 H11            0.5293    -0.3651     0.8851 H       
  12 H12           -1.9435    -0.1821     0.9097 H       
  13 H13           -1.9605    -0.1726    -0.8702 H       
  14 H14           -3.7774    -2.4695     0.9149 H       
  15 H15           -3.7944    -2.4600    -0.8650 H       
  16 H16           -3.0782    -4.8338    -0.8845 H       
  17 H17           -3.0612    -4.8434     0.8953 H       
  18 H18           -5.1299    -5.7056     0.0204 H       
  19 H19           -5.4221    -4.2727     0.8123 H       
@<TRIPOS>BOND
   1    1    2 1
   2    1    8 1
   3    1    9 1
   4    2    3 1
   5    2   10 1
   6    2   11 1
   7    3    4 1
   8    3   12 1
   9    3   13 1
  10    4    5 1
  11    5    6 1
  12    5   14 1
  13    5   15 1
  14    6    7 1
  15    6   16 1
  16    6   17 1
  17    7   18 1
  18    7   19 1

#	End of record

