#	Name: ASD01209136
#	Creating user name:	WinNT
#	Creation time:	15. 06. 2019 19:11

#	Modifying user name:	WinNT
#	Modification time:	15. 06. 2019 19:11

#	Program:	/corina/corina34_cracker 3.40 0067  02.08.2006

@<TRIPOS>MOLECULE
ASD01209136
  57   57    0    0    0
SMALL
NO_CHARGES


@<TRIPOS>ATOM
   1 N1             0.6648     1.4960    -0.0747 N.2     
   2 C2             0.6643     0.2359     0.2292 C.2     
   3 S3             2.0437    -0.5286    -0.4310 S.3     
   4 C4             2.5734     1.0020    -1.1239 C.2     
   5 C5             1.6767     1.9353    -0.7999 C.2     
   6 N6            -0.3151    -0.4011     0.9827 N.am    
   7 C7             1.8083     3.3744    -1.2271 C.3     
   8 P8             0.9824     3.6088    -2.8353 P.3     
   9 O9             1.6490     2.7729    -3.8587 O.2     
  10 C10           -0.2158    -1.7204     1.2397 C.2     
  11 O11           -1.1644    -2.3373     1.9695 O.3     
  12 O12            0.7297    -2.3531     0.8129 O.2     
  13 C13           -0.9926    -3.7595     2.2068 C.3     
  14 C14            0.3208    -3.9966     2.9549 C.3     
  15 C15           -2.1597    -4.2809     3.0474 C.3     
  16 C16           -0.9577    -4.4994     0.8680 C.3     
  17 O17           -0.5635     3.1762    -2.7128 O.3     
  18 Si18          -1.4460     4.1379    -1.7348 Si      
  19 C19           -0.6995     5.8445    -1.7037 C.3     
  20 C20           -3.1936     4.2361    -2.3727 C.3     
  21 C21           -1.4530     3.4316    -0.0109 C.3     
  22 O22            1.0738     5.1578    -3.2648 O.3     
  23 Si23           0.5307     5.4613    -4.7725 Si      
  24 C24           -1.2733     5.0102    -4.8853 C.3     
  25 C25            0.7433     7.2719    -5.1564 C.3     
  26 C26            1.5019     4.4485    -5.9980 C.3     
  27 H27            3.4678     1.1577    -1.7089 H       
  28 H28           -1.0698     0.1040     1.3234 H       
  29 H29            1.3420     4.0188    -0.4819 H       
  30 H30            2.8637     3.6308    -1.3199 H       
  31 H31            0.2960    -3.4695     3.9087 H       
  32 H32            0.4498    -5.0642     3.1331 H       
  33 H33            1.1523    -3.6252     2.3560 H       
  34 H34           -3.0954    -4.1119     2.5145 H       
  35 H35           -2.0307    -5.3485     3.2256 H       
  36 H36           -2.1846    -3.7538     4.0012 H       
  37 H37           -0.1262    -4.1279     0.2691 H       
  38 H38           -0.8287    -5.5669     1.0462 H       
  39 H39           -1.8934    -4.3304     0.3350 H       
  40 H40           -0.7440     6.2788    -2.7024 H       
  41 H41           -1.2574     6.4725    -1.0092 H       
  42 H42            0.3398     5.7806    -1.3813 H       
  43 H43           -3.6304     3.2376    -2.3909 H       
  44 H44           -3.7834     4.8788    -1.7191 H       
  45 H45           -3.1896     4.6494    -3.3814 H       
  46 H46           -0.5208     3.6901     0.4914 H       
  47 H47           -2.2932     3.8444     0.5475 H       
  48 H48           -1.5491     2.3471    -0.0630 H       
  49 H49           -1.8516     5.6576    -4.2260 H       
  50 H50           -1.6162     5.1377    -5.9120 H       
  51 H51           -1.4076     3.9714    -4.5837 H       
  52 H52            1.7988     7.5358    -5.0904 H       
  53 H53            0.3803     7.4747    -6.1640 H       
  54 H54            0.1751     7.8644    -4.4394 H       
  55 H55            1.3775     3.3891    -5.7734 H       
  56 H56            1.1389     4.6513    -7.0056 H       
  57 H57            2.5574     4.7124    -5.9320 H       
@<TRIPOS>BOND
   1    1    2 2
   2    1    5 1
   3    2    3 1
   4    2    6 1
   5    3    4 1
   6    4    5 2
   7    4   27 1
   8    5    7 1
   9    6   10 am
  10    6   28 1
  11    7    8 1
  12    7   29 1
  13    7   30 1
  14    8    9 2
  15    8   17 1
  16    8   22 1
  17   10   11 1
  18   10   12 2
  19   11   13 1
  20   13   14 1
  21   13   15 1
  22   13   16 1
  23   14   31 1
  24   14   32 1
  25   14   33 1
  26   15   34 1
  27   15   35 1
  28   15   36 1
  29   16   37 1
  30   16   38 1
  31   16   39 1
  32   17   18 1
  33   18   19 1
  34   18   20 1
  35   18   21 1
  36   19   40 1
  37   19   41 1
  38   19   42 1
  39   20   43 1
  40   20   44 1
  41   20   45 1
  42   21   46 1
  43   21   47 1
  44   21   48 1
  45   22   23 1
  46   23   24 1
  47   23   25 1
  48   23   26 1
  49   24   49 1
  50   24   50 1
  51   24   51 1
  52   25   52 1
  53   25   53 1
  54   25   54 1
  55   26   55 1
  56   26   56 1
  57   26   57 1

#	End of record

