#	Name: ASD04590922
#	Creating user name:	WinNT
#	Creation time:	15. 06. 2019 20:51

#	Modifying user name:	WinNT
#	Modification time:	15. 06. 2019 20:51

#	Program:	/corina/corina34_cracker 3.40 0067  02.08.2006

@<TRIPOS>MOLECULE
ASD04590922
  53   58    0    0    0
SMALL
NO_CHARGES


@<TRIPOS>ATOM
   1 N1             0.0783     1.3162     0.7607 N.ar    
   2 C2             0.1243    -0.0067     0.8524 C.ar    
   3 N3             1.2285    -0.6945     0.6102 N.ar    
   4 C4             2.3503    -0.0724     0.2598 C.ar    
   5 C5             2.3339     1.3329     0.1532 C.ar    
   6 C6             1.1493     2.0128     0.4181 C.ar    
   7 N7             3.6134    -0.5159    -0.0444 N.pl3   
   8 C8             4.4400     0.5514    -0.3506 C.ar    
   9 C9             3.6894     1.7358    -0.2427 C.ar    
  10 C10            5.7764     0.6455    -0.7166 C.ar    
  11 N11            6.3248     1.8193    -0.9557 N.ar    
  12 C12            5.6477     2.9502    -0.8632 C.ar    
  13 C13            4.3156     2.9532    -0.5074 C.ar    
  14 N14           -1.0236    -0.6918     1.2148 N.pl3   
  15 C15           -2.1698     0.0133     1.5832 C.ar    
  16 N16           -2.1328     1.3316     1.6854 N.ar    
  17 N17           -3.1623     2.0204     2.0211 N.ar    
  18 C18           -4.3300     1.4583     2.2875 C.ar    
  19 C19           -4.4680     0.0716     2.2065 C.ar    
  20 C20           -3.3594    -0.6703     1.8390 C.ar    
  21 N21           -5.4193     2.2484     2.6483 N.3     
  22 C22            4.0284    -1.9209    -0.0443 C.3     
  23 C23           -5.9684     1.8278     3.9449 C.3     
  24 C24           -5.0530     3.6714     2.6714 C.3     
  25 C25           -6.2926     4.5093     2.9933 C.3     
  26 N26           -6.8417     4.0888     4.2899 N.3     
  27 C27           -7.2080     2.6658     4.2669 C.3     
  28 C28            3.2184    -2.8024     0.9209 C.3     
  29 C29            3.4135    -2.7448    -1.1880 C.3     
  30 C30            2.2379    -3.0366    -0.2404 C.3     
  31 H31            1.1051     3.0895     0.3453 H       
  32 H32            6.3715    -0.2514    -0.8055 H       
  33 H33            6.1450     3.8863    -1.0700 H       
  34 H34            3.7680     3.8811    -0.4336 H       
  35 H35           -1.0307    -1.6618     1.2124 H       
  36 H36           -5.4122    -0.4071     2.4202 H       
  37 H37           -3.4107    -1.7462     1.7609 H       
  38 H38            5.1072    -2.0436     0.0512 H       
  39 H39           -6.2437     0.7741     3.8987 H       
  40 H40           -5.2185     1.9743     4.7222 H       
  41 H41           -4.2926     3.8389     3.4342 H       
  42 H42           -4.6608     3.9618     1.6967 H       
  43 H43           -6.0173     5.5630     3.0395 H       
  44 H44           -7.0425     4.3628     2.2160 H       
  45 H45           -6.1927     4.2830     5.0377 H       
  46 H46           -7.9684     2.4983     3.5040 H       
  47 H47           -7.6002     2.3753     5.2415 H       
  48 H48            3.7451    -3.7031     1.2360 H       
  49 H49            2.7837    -2.2514     1.7549 H       
  50 H50            3.1363    -2.1474    -2.0565 H       
  51 H51            3.9936    -3.6298    -1.4494 H       
  52 H52            1.8712    -4.0612    -0.3023 H       
  53 H53            1.4397    -2.2963    -0.2941 H       
@<TRIPOS>BOND
   1    1    2 ar
   2    1    6 ar
   3    2    3 ar
   4    2   14 1
   5    3    4 ar
   6    4    5 ar
   7    4    7 1
   8    5    6 ar
   9    5    9 1
  10    6   31 1
  11    7    8 1
  12    7   22 1
  13    8    9 ar
  14    8   10 ar
  15    9   13 ar
  16   10   11 ar
  17   10   32 1
  18   11   12 ar
  19   12   13 ar
  20   12   33 1
  21   13   34 1
  22   14   15 1
  23   14   35 1
  24   15   16 ar
  25   15   20 ar
  26   16   17 ar
  27   17   18 ar
  28   18   19 ar
  29   18   21 1
  30   19   20 ar
  31   19   36 1
  32   20   37 1
  33   21   24 1
  34   21   23 1
  35   22   29 1
  36   22   28 1
  37   22   38 1
  38   23   27 1
  39   23   39 1
  40   23   40 1
  41   24   25 1
  42   24   41 1
  43   24   42 1
  44   25   26 1
  45   25   43 1
  46   25   44 1
  47   26   27 1
  48   26   45 1
  49   27   46 1
  50   27   47 1
  51   28   30 1
  52   28   48 1
  53   28   49 1
  54   29   30 1
  55   29   50 1
  56   29   51 1
  57   30   52 1
  58   30   53 1

#	End of record

