#	Name: ASD01411072
#	Creating user name:	WinNT
#	Creation time:	15. 06. 2019 19:19

#	Modifying user name:	WinNT
#	Modification time:	15. 06. 2019 19:19

#	Program:	/corina/corina34_cracker 3.40 0067  02.08.2006

@<TRIPOS>MOLECULE
ASD01411072
  60   64    0    0    0
SMALL
NO_CHARGES


@<TRIPOS>ATOM
   1 C1             1.4242     1.4300    -1.3238 C.ar    
   2 C2             1.4430     0.0496    -1.3603 C.ar    
   3 C3             1.1869     2.0889    -0.1246 C.ar    
   4 C4             1.2257    -0.6773    -0.2042 C.ar    
   5 C5             0.9690     1.3575     1.0348 C.ar    
   6 N6             1.1678     3.4895    -0.0850 N.am    
   7 C7             0.9884    -0.0242     0.9925 C.ar    
   8 C8             2.3313     4.1655     0.0341 C.2     
   9 C9            -0.0058     4.1353    -0.1717 C.2     
  10 Cl10           0.7155    -0.9405     2.4415 Cl      
  11 C11            2.2810     5.6380     0.0731 C.ar    
  12 O12            3.3917     3.5749     0.1077 O.2     
  13 N13           -0.1032     5.4755    -0.1415 N.am    
  14 O14           -1.0237     3.4801    -0.2828 O.2     
  15 C15            1.0247     6.2620    -0.0157 C.ar    
  16 C16            3.4358     6.4063     0.1948 C.ar    
  17 C17            0.9449     7.6592     0.0185 C.ar    
  18 C18            3.3443     7.7849     0.2280 C.ar    
  19 C19            2.1160     8.4109     0.1406 C.ar    
  20 C20           -0.3646     8.3320    -0.0739 C.2     
  21 O21           -1.3743     7.6763    -0.2444 O.2     
  22 N22           -0.4419     9.6735     0.0305 N.am    
  23 C23           -1.7424    10.3416    -0.0614 C.3     
  24 C24           -1.6817    11.6829     0.6747 C.3     
  25 C25           -3.0235    12.4033     0.5237 C.3     
  26 N26           -3.3071    12.6188    -0.9009 N.3     
  27 C27           -3.4169    11.3428    -1.6194 C.3     
  28 C28           -2.0869    10.5908    -1.5324 C.3     
  29 C29           -4.6431    13.8356    -2.5255 C.ar    
  30 C30           -5.3308    13.0295    -3.4133 C.ar    
  31 C31           -5.4494    13.4048    -4.7384 C.ar    
  32 C32           -4.8808    14.5864    -5.1757 C.ar    
  33 C33           -4.1938    15.3930    -4.2878 C.ar    
  34 C34           -4.0740    15.0171    -2.9629 C.ar    
  35 C35           -4.5190    13.4296    -1.0796 C.3     
  36 H36            1.5985     1.9968    -2.2264 H       
  37 H37            1.6273    -0.4629    -2.2929 H       
  38 H38            1.2409    -1.7568    -0.2353 H       
  39 H39            0.7841     1.8673     1.9688 H       
  40 H40           -0.9754     5.8947    -0.2080 H       
  41 H41            4.4007     5.9261     0.2634 H       
  42 H42            4.2416     8.3785     0.3227 H       
  43 H43            2.0606     9.4892     0.1679 H       
  44 H44            0.3636    10.1966     0.1664 H       
  45 H45           -2.5082     9.7119     0.3915 H       
  46 H46           -1.4789    11.5092     1.7315 H       
  47 H47           -0.8889    12.2969     0.2475 H       
  48 H48           -3.8138    11.7950     0.9634 H       
  49 H49           -2.9788    13.3651     1.0347 H       
  50 H50           -4.2054    10.7395    -1.1697 H       
  51 H51           -3.6581    11.5344    -2.6650 H       
  52 H52           -1.3005    11.1876    -1.9943 H       
  53 H53           -2.1736     9.6368    -2.0524 H       
  54 H54           -5.7750    12.1063    -3.0716 H       
  55 H55           -5.9861    12.7746    -5.4321 H       
  56 H56           -4.9729    14.8793    -6.2111 H       
  57 H57           -3.7490    16.3159    -4.6296 H       
  58 H58           -3.5367    15.6469    -2.2694 H       
  59 H59           -5.3927    12.8458    -0.7899 H       
  60 H60           -4.4548    14.3213    -0.4560 H       
@<TRIPOS>BOND
   1    1    2 ar
   2    1    3 ar
   3    1   36 1
   4    2    4 ar
   5    2   37 1
   6    3    5 ar
   7    3    6 1
   8    4    7 ar
   9    4   38 1
  10    5    7 ar
  11    5   39 1
  12    6    9 am
  13    6    8 am
  14    7   10 1
  15    8   11 1
  16    8   12 2
  17    9   13 am
  18    9   14 2
  19   11   15 ar
  20   11   16 ar
  21   13   15 1
  22   13   40 1
  23   15   17 ar
  24   16   18 ar
  25   16   41 1
  26   17   20 1
  27   17   19 ar
  28   18   19 ar
  29   18   42 1
  30   19   43 1
  31   20   21 2
  32   20   22 am
  33   22   23 1
  34   22   44 1
  35   23   24 1
  36   23   28 1
  37   23   45 1
  38   24   25 1
  39   24   46 1
  40   24   47 1
  41   25   26 1
  42   25   48 1
  43   25   49 1
  44   26   27 1
  45   26   35 1
  46   27   28 1
  47   27   50 1
  48   27   51 1
  49   28   52 1
  50   28   53 1
  51   29   30 ar
  52   29   34 ar
  53   29   35 1
  54   30   31 ar
  55   30   54 1
  56   31   32 ar
  57   31   55 1
  58   32   33 ar
  59   32   56 1
  60   33   34 ar
  61   33   57 1
  62   34   58 1
  63   35   59 1
  64   35   60 1

#	End of record

