#	Name: ASD01900175
#	Creating user name:	WinNT
#	Creation time:	15. 06. 2019 19:51

#	Modifying user name:	WinNT
#	Modification time:	15. 06. 2019 19:51

#	Program:	/corina/corina34_cracker 3.40 0067  02.08.2006

@<TRIPOS>MOLECULE
ASD01900175
  33   36    0    0    0
SMALL
NO_CHARGES


@<TRIPOS>ATOM
   1 N1            -0.0168     1.3872     0.0097 N.pl3   
   2 C2             0.0694    -0.0014    -0.0077 C.ar    
   3 C3            -1.0880    -0.7654     0.1037 C.ar    
   4 C4            -0.9878    -2.1448     0.0845 C.ar    
   5 C5             0.2712    -2.7161    -0.0461 C.ar    
   6 C6             1.3776    -1.8973    -0.1521 C.ar    
   7 N7             1.2515    -0.5839    -0.1357 N.ar    
   8 C8             2.7465    -2.5114    -0.2940 C.3     
   9 N9             2.3471     1.6882     0.0945 N.2     
  10 C10            1.1392     2.1539     0.0111 C.2     
  11 S11            1.1950     3.9105    -0.1007 S.3     
  12 C12            2.9493     3.8656    -0.0266 C.2     
  13 C13            3.8975     5.0333    -0.0861 C.3     
  14 C14            5.1642     4.7833     0.7321 C.3     
  15 C15            5.6747     3.3845     0.5094 C.2     
  16 N16            6.8832     2.9169     0.5396 N.2     
  17 N17            6.8361     1.5369     0.2829 N.pl3   
  18 C18            5.5409     1.1844     0.0890 C.2     
  19 C19            4.8047     2.2981     0.2142 C.2     
  20 C20            3.3381     2.5613     0.0877 C.2     
  21 H21           -0.8853     1.8192     0.0168 H       
  22 H22           -2.0515    -0.2879     0.2043 H       
  23 H23           -1.8689    -2.7636     0.1695 H       
  24 H24            0.3837    -3.7901    -0.0642 H       
  25 H25            2.9735    -2.6526    -1.3506 H       
  26 H26            3.4893    -1.8501     0.1521 H       
  27 H27            2.7666    -3.4755     0.2141 H       
  28 H28            4.1758     5.2114    -1.1248 H       
  29 H29            3.3941     5.9189     0.3014 H       
  30 H30            5.9316     5.4973     0.4329 H       
  31 H31            4.9409     4.9198     1.7902 H       
  32 H32            7.5989     0.9387     0.2499 H       
  33 H33            5.1717     0.1926    -0.1262 H       
@<TRIPOS>BOND
   1    1    2 1
   2    1   10 1
   3    1   21 1
   4    2    3 ar
   5    2    7 ar
   6    3    4 ar
   7    3   22 1
   8    4    5 ar
   9    4   23 1
  10    5    6 ar
  11    5   24 1
  12    6    7 ar
  13    6    8 1
  14    8   25 1
  15    8   26 1
  16    8   27 1
  17    9   10 2
  18    9   20 1
  19   10   11 1
  20   11   12 1
  21   12   13 1
  22   12   20 2
  23   13   14 1
  24   13   28 1
  25   13   29 1
  26   14   15 1
  27   14   30 1
  28   14   31 1
  29   15   16 2
  30   15   19 1
  31   16   17 1
  32   17   18 1
  33   17   32 1
  34   18   19 2
  35   18   33 1
  36   19   20 1

#	End of record

