#	Name: ASD01883999
#	Creating user name:	WinNT
#	Creation time:	15. 06. 2019 19:47

#	Modifying user name:	WinNT
#	Modification time:	15. 06. 2019 19:47

#	Program:	/corina/corina34_cracker 3.40 0067  02.08.2006

@<TRIPOS>MOLECULE
ASD01883999
  51   54    0    0    0
SMALL
NO_CHARGES


@<TRIPOS>ATOM
   1 Cl1            0.0000     0.0000     0.0000 Cl      
   2 H2             0.0000     1.3700     0.0000 H       
   3 C3            12.6629    18.8453     7.5002 C.3     
   4 N4            12.6827    17.3804     7.4921 N.am    
   5 C5            11.4849    16.6814     7.4941 C.2     
   6 C6            10.1912    17.1179     7.5029 C.2     
   7 C7             9.3596    15.9974     7.5008 C.2     
   8 N8            10.1082    14.9237     7.4910 N.2     
   9 N9            11.4527    15.3212     7.4864 N.pl3   
  10 C10           12.6334    14.5848     7.4762 C.ar    
  11 C11           12.6100    13.2009     7.4679 C.ar    
  12 C12           13.8093    12.4923     7.4573 C.ar    
  13 C13           15.0301    13.1722     7.4556 C.ar    
  14 C14           15.0606    14.5379     7.4643 C.ar    
  15 C15           13.8666    15.2597     7.4740 C.ar    
  16 C16           13.8657    16.7325     7.4774 C.2     
  17 O17           14.9124    17.3530     7.4711 O.2     
  18 C18           13.7904    11.0103     7.4482 C.ar    
  19 C19           14.9881    10.2851     7.4434 C.ar    
  20 C20           14.9208     8.9063     7.4355 C.ar    
  21 C21           13.6740     8.2864     7.4326 C.ar    
  22 N22           13.5982     6.9002     7.4251 N.pl3   
  23 N23           12.5591     9.0022     7.4373 N.ar    
  24 C24           12.5809    10.3195     7.4502 C.ar    
  25 C25            7.8528    16.0196     7.5089 C.3     
  26 C26            7.3721    17.1839     8.3699 C.3     
  27 C27            5.8656    17.0653     8.6153 C.3     
  28 S28            5.0000    17.1876     7.0219 S.3     
  29 C29            5.8347    15.9125     6.0316 C.3     
  30 C30            7.3447    16.1610     6.0771 C.3     
  31 H31           13.6855    19.2226     7.4925 H       
  32 H32           12.1357    19.2064     6.6171 H       
  33 H33           12.1527    19.1968     8.3970 H       
  34 H34            9.8684    18.1485     7.5106 H       
  35 H35           11.6675    12.6735     7.4699 H       
  36 H36           15.9550    12.6146     7.4477 H       
  37 H37           16.0072    15.0579     7.4637 H       
  38 H38           15.9417    10.7923     7.4455 H       
  39 H39           15.8247     8.3152     7.4313 H       
  40 H40           14.4105     6.3700     7.4220 H       
  41 H41           12.7329     6.4618     7.4231 H       
  42 H42           11.6514    10.8694     7.4581 H       
  43 H43            7.4824    15.0852     7.9306 H       
  44 H44            7.8967    17.1683     9.3252 H       
  45 H45            7.5826    18.1232     7.8585 H       
  46 H46            5.6456    16.1029     9.0775 H       
  47 H47            5.5379    17.8713     9.2718 H       
  48 H48            5.6140    14.9277     6.4434 H       
  49 H49            5.4868    15.9654     5.0000 H       
  50 H50            7.5570    17.1671     5.7155 H       
  51 H51            7.8502    15.4350     5.4404 H       
@<TRIPOS>BOND
   1    1    2 1
   2    3    4 1
   3    3   31 1
   4    3   32 1
   5    3   33 1
   6    4   16 am
   7    4    5 1
   8    5    9 1
   9    5    6 2
  10    6    7 1
  11    6   34 1
  12    7    8 2
  13    7   25 1
  14    8    9 1
  15    9   10 1
  16   10   15 ar
  17   10   11 ar
  18   11   12 ar
  19   11   35 1
  20   12   13 ar
  21   12   18 1
  22   13   14 ar
  23   13   36 1
  24   14   15 ar
  25   14   37 1
  26   15   16 1
  27   16   17 2
  28   18   24 ar
  29   18   19 ar
  30   19   20 ar
  31   19   38 1
  32   20   21 ar
  33   20   39 1
  34   21   22 1
  35   21   23 ar
  36   22   40 1
  37   22   41 1
  38   23   24 ar
  39   24   42 1
  40   25   30 1
  41   25   26 1
  42   25   43 1
  43   26   27 1
  44   26   44 1
  45   26   45 1
  46   27   28 1
  47   27   46 1
  48   27   47 1
  49   28   29 1
  50   29   30 1
  51   29   48 1
  52   29   49 1
  53   30   50 1
  54   30   51 1

#	End of record

