#	Name: ASD01230225
#	Creating user name:	WinNT
#	Creation time:	15. 06. 2019 19:12

#	Modifying user name:	WinNT
#	Modification time:	15. 06. 2019 19:12

#	Program:	/corina/corina34_cracker 3.40 0067  02.08.2006

@<TRIPOS>MOLECULE
ASD01230225
  41   44    0    0    0
SMALL
NO_CHARGES


@<TRIPOS>ATOM
   1 S1             0.0754     1.7725     1.3221 S.o2    
   2 N2            -0.1058     0.2570     0.6832 N.am    
   3 C3             0.6439    -0.1830    -0.2985 C.2     
   4 N4             1.6425     0.5196    -0.9097 N.pl3   
   5 C5             1.9749     1.9114    -0.5946 C.3     
   6 C6             1.7996     2.1805     0.9029 C.3     
   7 C7             0.3606    -1.5581    -0.7615 C.2     
   8 C8             1.1359    -2.1026    -1.7622 C.2     
   9 C9             2.1733    -1.3356    -2.3118 C.2     
  10 C10            2.3987    -0.0795    -1.8875 C.2     
  11 C11           -0.7416    -2.3405    -0.1574 C.ar    
  12 C12           -0.4609    -3.4973     0.5707 C.ar    
  13 C13           -1.4898    -4.2231     1.1323 C.ar    
  14 C14           -2.8044    -3.8044     0.9736 C.ar    
  15 C15           -3.0876    -2.6540     0.2493 C.ar    
  16 C16           -2.0633    -1.9197    -0.3098 C.ar    
  17 O17           -3.8159    -4.5225     1.5281 O.3     
  18 C18           -4.3961    -5.4936     0.7754 C.ar    
  19 C19           -3.8835    -5.8017    -0.4768 C.ar    
  20 C20           -4.4749    -6.7897    -1.2398 C.ar    
  21 C21           -5.5766    -7.4716    -0.7569 C.ar    
  22 C22           -6.0893    -7.1666     0.4906 C.ar    
  23 C23           -5.4985    -6.1830     1.2598 C.ar    
  24 Cl24           3.1776    -2.0151    -3.5541 Cl      
  25 O25           -0.8285     2.5825     0.5831 O.2     
  26 O26           -0.0733     1.5899     2.7235 O.2     
  27 H27            3.0097     2.1065    -0.8763 H       
  28 H28            1.3184     2.5743    -1.1582 H       
  29 H29            1.9952     3.2313     1.1169 H       
  30 H30            2.4802     1.5508     1.4759 H       
  31 H31            0.9476    -3.1049    -2.1176 H       
  32 H32            3.2074     0.4806    -2.3332 H       
  33 H33            0.5612    -3.8239     0.6939 H       
  34 H34           -1.2733    -5.1185     1.6960 H       
  35 H35           -4.1111    -2.3317     0.1273 H       
  36 H36           -2.2839    -1.0224    -0.8690 H       
  37 H37           -3.0233    -5.2692    -0.8546 H       
  38 H38           -4.0766    -7.0296    -2.2146 H       
  39 H39           -6.0377    -8.2435    -1.3552 H       
  40 H40           -6.9499    -7.7006     0.8655 H       
  41 H41           -5.8967    -5.9482     2.2359 H       
@<TRIPOS>BOND
   1    1    2 am
   2    1    6 1
   3    1   25 2
   4    1   26 2
   5    2    3 2
   6    3    4 1
   7    3    7 1
   8    4    5 1
   9    4   10 1
  10    5    6 1
  11    5   27 1
  12    5   28 1
  13    6   29 1
  14    6   30 1
  15    7    8 2
  16    7   11 1
  17    8    9 1
  18    8   31 1
  19    9   10 2
  20    9   24 1
  21   10   32 1
  22   11   12 ar
  23   11   16 ar
  24   12   13 ar
  25   12   33 1
  26   13   14 ar
  27   13   34 1
  28   14   15 ar
  29   14   17 1
  30   15   16 ar
  31   15   35 1
  32   16   36 1
  33   17   18 1
  34   18   19 ar
  35   18   23 ar
  36   19   20 ar
  37   19   37 1
  38   20   21 ar
  39   20   38 1
  40   21   22 ar
  41   21   39 1
  42   22   23 ar
  43   22   40 1
  44   23   41 1

#	End of record

