#	Name: ASD01813306
#	Creating user name:	WinNT
#	Creation time:	15. 06. 2019 19:30

#	Modifying user name:	WinNT
#	Modification time:	15. 06. 2019 19:30

#	Program:	/corina/corina34_cracker 3.40 0067  02.08.2006

@<TRIPOS>MOLECULE
ASD01813306
  55   58    0    0    0
SMALL
NO_CHARGES


@<TRIPOS>ATOM
   1 C1            -0.4256     1.8681     0.2159 C.2     
   2 N2            -0.0781     0.5541     0.0768 N.pl3   
   3 C3            -0.9655    -0.4476     0.0860 C.2     
   4 C4            -2.3113    -0.1808     0.2419 C.2     
   5 C5            -2.7179     1.2218     0.3974 C.2     
   6 O6            -3.8936     1.5194     0.5369 O.2     
   7 C7             1.3394     0.2247    -0.0917 C.3     
   8 C8             1.6529     0.0902    -1.5596 C.ar    
   9 C9            -2.1539     3.6537     0.5576 C.3     
  10 C10           -1.0659     4.6202     0.0946 C.3     
  11 C11            0.2527     4.2098     0.7619 C.3     
  12 C12            0.6958     2.8767     0.1648 C.3     
  13 C13           -1.7099     2.2259     0.3821 C.2     
  14 C14            2.1829     1.1639    -2.2522 C.ar    
  15 C15            2.4719     1.0463    -3.5966 C.ar    
  16 C16            2.2288    -0.1568    -4.2562 C.ar    
  17 C17            1.6948    -1.2351    -3.5535 C.ar    
  18 C18            1.4149    -1.1082    -2.2080 C.ar    
  19 O19           -2.4381     3.8916     1.9377 O.3     
  20 C20           -3.4220     3.8914    -0.2649 C.3     
  21 C21            2.5370    -0.2891    -5.7017 C.ar    
  22 C22           -3.8125     5.3686    -0.1845 C.3     
  23 C23            2.2939    -1.4922    -6.3612 C.ar    
  24 C24            2.5826    -1.6097    -7.7057 C.ar    
  25 C25            3.1126    -0.5361    -8.3983 C.ar    
  26 C26            3.3563     0.6604    -7.7485 C.ar    
  27 C27            3.0652     0.7911    -6.4057 C.ar    
  28 C28           -3.3052    -1.2658     0.2514 C.2     
  29 O29           -2.9465    -2.4196     0.1207 O.2     
  30 O30           -4.6134    -0.9800     0.4051 O.3     
  31 H31           -0.6282    -1.4671    -0.0292 H       
  32 H32            1.9504     1.0179     0.3392 H       
  33 H33            1.5563    -0.7163     0.4139 H       
  34 H34           -0.9624     4.5659    -0.9891 H       
  35 H35           -1.3268     5.6366     0.3895 H       
  36 H36            1.0122     4.9682     0.5723 H       
  37 H37            0.1025     4.0997     1.8359 H       
  38 H38            1.5468     2.4959     0.7295 H       
  39 H39            0.9939     3.0296    -0.8724 H       
  40 H40            2.3706     2.0960    -1.7400 H       
  41 H41            2.8853     1.8853    -4.1365 H       
  42 H42            1.5045    -2.1699    -4.0599 H       
  43 H43            1.0010    -1.9433    -1.6624 H       
  44 H44           -2.7498     4.7874     2.1264 H       
  45 H45           -3.2369     3.6206    -1.3043 H       
  46 H46           -4.2321     3.2794     0.1314 H       
  47 H47           -3.0023     5.9807    -0.5808 H       
  48 H48           -4.7159     5.5379    -0.7705 H       
  49 H49           -3.9975     5.6395     0.8549 H       
  50 H50            1.8808    -2.3313    -5.8212 H       
  51 H51            2.3946    -2.5417    -8.2179 H       
  52 H52            3.3373    -0.6324    -9.4503 H       
  53 H53            3.7706     1.4954    -8.2940 H       
  54 H54            3.2556     1.7258    -5.8993 H       
  55 H55           -5.2287    -1.7260     0.4049 H       
@<TRIPOS>BOND
   1    1    2 1
   2    1   12 1
   3    1   13 2
   4    2    3 1
   5    2    7 1
   6    3    4 2
   7    3   31 1
   8    4    5 1
   9    4   28 1
  10    5    6 2
  11    5   13 1
  12    7    8 1
  13    7   32 1
  14    7   33 1
  15    8   14 ar
  16    8   18 ar
  17    9   10 1
  18    9   13 1
  19    9   19 1
  20    9   20 1
  21   10   11 1
  22   10   34 1
  23   10   35 1
  24   11   12 1
  25   11   36 1
  26   11   37 1
  27   12   38 1
  28   12   39 1
  29   14   15 ar
  30   14   40 1
  31   15   16 ar
  32   15   41 1
  33   16   17 ar
  34   16   21 1
  35   17   18 ar
  36   17   42 1
  37   18   43 1
  38   19   44 1
  39   20   22 1
  40   20   45 1
  41   20   46 1
  42   21   23 ar
  43   21   27 ar
  44   22   47 1
  45   22   48 1
  46   22   49 1
  47   23   24 ar
  48   23   50 1
  49   24   25 ar
  50   24   51 1
  51   25   26 ar
  52   25   52 1
  53   26   27 ar
  54   26   53 1
  55   27   54 1
  56   28   29 2
  57   28   30 1
  58   30   55 1

#	End of record

