#	Name: ASD04170033
#	Creating user name:	WinNT
#	Creation time:	15. 06. 2019 20:48

#	Modifying user name:	WinNT
#	Modification time:	15. 06. 2019 20:48

#	Program:	/corina/corina34_cracker 3.40 0067  02.08.2006

@<TRIPOS>MOLECULE
ASD04170033
  38   40    0    0    0
SMALL
NO_CHARGES


@<TRIPOS>ATOM
   1 O1            -0.0015     0.0435     0.4146 O.2     
   2 C2            -0.0122     1.2438     0.2213 C.2     
   3 N3             1.1435     1.9014     0.0014 N.am    
   4 C4             2.3638     1.2214     0.0917 C.ar    
   5 C5             2.4555    -0.1008    -0.3223 C.ar    
   6 C6             3.6607    -0.7693    -0.2320 C.ar    
   7 C7             4.7760    -0.1227     0.2704 C.ar    
   8 C8             4.6873     1.1947     0.6837 C.ar    
   9 C9             3.4860     1.8697     0.5902 C.ar    
  10 Br10           6.4242    -1.0414     0.3931 Br      
  11 N11           -1.1804     1.9160     0.2216 N.am    
  12 C12           -2.4373     1.2003     0.4548 C.3     
  13 C13           -2.6819     1.0704     1.9598 C.3     
  14 N14           -3.9382     1.7305     2.3226 N.4     
  15 C15           -5.0689     1.0993     1.6378 C.3     
  16 C16           -4.9034     1.2309     0.1221 C.3     
  17 C17           -3.5989     1.9843    -0.1697 C.3     
  18 C18           -3.6733     3.3597     0.5064 C.3     
  19 C19           -3.8784     3.1603     2.0098 C.3     
  20 H20            1.1297     2.8458    -0.2196 H       
  21 H21            1.5852    -0.6061    -0.7142 H       
  22 H22            3.7326    -1.7978    -0.5535 H       
  23 H23            5.5593     1.6970     1.0758 H       
  24 H24            3.4174     2.8982     0.9126 H       
  25 H25           -1.1890     2.8736     0.0675 H       
  26 H26           -2.3811     0.2081     0.0069 H       
  27 H27           -2.7373     0.0152     2.2275 H       
  28 H28           -1.8589     1.5365     2.5016 H       
  29 H29           -4.0737     1.6342     3.3178 H       
  30 H30           -5.1111     0.0439     1.9067 H       
  31 H31           -5.9947     1.5862     1.9441 H       
  32 H32           -4.8610     0.2392    -0.3282 H       
  33 H33           -5.7459     1.7859    -0.2905 H       
  34 H34           -3.4526     2.0836    -1.2453 H       
  35 H35           -2.7441     3.9025     0.3334 H       
  36 H36           -4.5103     3.9241     0.0953 H       
  37 H37           -4.8106     3.6363     2.3139 H       
  38 H38           -3.0488     3.6146     2.5514 H       
@<TRIPOS>BOND
   1    1    2 2
   2    2    3 am
   3    2   11 am
   4    3    4 1
   5    3   20 1
   6    4    5 ar
   7    4    9 ar
   8    5    6 ar
   9    5   21 1
  10    6    7 ar
  11    6   22 1
  12    7    8 ar
  13    7   10 1
  14    8    9 ar
  15    8   23 1
  16    9   24 1
  17   11   12 1
  18   11   25 1
  19   12   13 1
  20   12   17 1
  21   12   26 1
  22   13   14 1
  23   13   27 1
  24   13   28 1
  25   14   15 1
  26   14   19 1
  27   14   29 1
  28   15   16 1
  29   15   30 1
  30   15   31 1
  31   16   17 1
  32   16   32 1
  33   16   33 1
  34   17   18 1
  35   17   34 1
  36   18   19 1
  37   18   35 1
  38   18   36 1
  39   19   37 1
  40   19   38 1

#	End of record

