#	Name: ASD01812645
#	Creating user name:	WinNT
#	Creation time:	15. 06. 2019 19:28

#	Modifying user name:	WinNT
#	Modification time:	15. 06. 2019 19:28

#	Program:	/corina/corina34_cracker 3.40 0067  02.08.2006

@<TRIPOS>MOLECULE
ASD01812645
  57   61    0    0    0
SMALL
NO_CHARGES


@<TRIPOS>ATOM
   1 O1            -0.0163     1.3523     0.0095 O.3     
   2 C2            -0.0143    -0.0010     0.1021 C.ar    
   3 C3             1.1835    -0.6995     0.0769 C.ar    
   4 C4             1.1877    -2.0773     0.1705 C.ar    
   5 C5            -0.0051    -2.7737     0.2904 C.ar    
   6 C6            -1.2000    -2.0952     0.3167 C.ar    
   7 C7            -1.2227    -0.7002     0.2294 C.ar    
   8 C8            -2.6373    -2.5375     0.4337 C.3     
   9 N9            -3.4464    -1.3138     0.3997 N.am    
  10 C10           -2.6247    -0.2555     0.2907 C.2     
  11 C11           -4.9077    -1.2543     0.4841 C.3     
  12 O12           -2.9886     0.9033     0.2352 O.2     
  13 C13            1.2400     1.9877    -0.2353 C.3     
  14 C14            1.9168     2.3103     1.0984 C.3     
  15 F15            2.1246     1.1265     1.8143 F       
  16 C16            1.0128     3.2825    -1.0182 C.3     
  17 C17            2.3579     3.9628    -1.2802 C.3     
  18 C18            3.0347     4.2854     0.0535 C.3     
  19 C19            3.2619     2.9907     0.8364 C.3     
  20 C20           -5.3232    -1.1380     1.9280 C.ar    
  21 C21           -5.4693     0.1108     2.5046 C.ar    
  22 C22           -5.8496     0.2230     3.8267 C.ar    
  23 C23           -6.0864    -0.9243     4.5805 C.ar    
  24 C24           -5.9377    -2.1794     3.9949 C.ar    
  25 C25           -5.5625    -2.2802     2.6704 C.ar    
  26 C26           -6.4952    -0.8097     6.0032 C.2     
  27 C27           -6.6831     0.3873     6.7214 C.2     
  28 N28           -7.0406     0.0779     7.9396 N.2     
  29 N29           -7.0947    -1.3171     8.0466 N.pl3   
  30 C30           -6.7629    -1.8446     6.8510 C.2     
  31 C31           -7.4545    -2.0730     9.2489 C.3     
  32 H32            2.1166    -0.1638    -0.0166 H       
  33 H33            2.1242    -2.6147     0.1499 H       
  34 H34            0.0047    -3.8512     0.3629 H       
  35 H35           -2.8999    -3.1837    -0.4039 H       
  36 H36           -2.7922    -3.0631     1.3760 H       
  37 H37           -5.2686    -0.3870    -0.0688 H       
  38 H38           -5.3337    -2.1614     0.0554 H       
  39 H39            1.8781     1.3202    -0.8144 H       
  40 H40            1.2787     2.9779     1.6775 H       
  41 H41            0.5306     3.0527    -1.9684 H       
  42 H42            0.3747     3.9500    -0.4391 H       
  43 H43            2.9960     3.2953    -1.8594 H       
  44 H44            2.1960     4.8852    -1.8380 H       
  45 H45            3.9930     4.7701    -0.1332 H       
  46 H46            2.3966     4.9529     0.6326 H       
  47 H47            3.7441     3.2205     1.7865 H       
  48 H48            3.9000     2.3231     0.2573 H       
  49 H49           -5.2852     0.9996     1.9194 H       
  50 H50           -5.9631     1.1985     4.2760 H       
  51 H51           -6.1196    -3.0720     4.5750 H       
  52 H52           -5.4512    -3.2528     2.2142 H       
  53 H53           -6.5539     1.3867     6.3330 H       
  54 H54           -6.7156    -2.8960     6.6088 H       
  55 H55           -8.5308    -2.2444     9.2617 H       
  56 H56           -6.9340    -3.0307     9.2453 H       
  57 H57           -7.1663    -1.5062    10.1342 H       
@<TRIPOS>BOND
   1    1    2 1
   2    1   13 1
   3    2    3 ar
   4    2    7 ar
   5    3    4 ar
   6    3   32 1
   7    4    5 ar
   8    4   33 1
   9    5    6 ar
  10    5   34 1
  11    6    8 1
  12    6    7 ar
  13    7   10 1
  14    8    9 1
  15    8   35 1
  16    8   36 1
  17    9   10 am
  18    9   11 1
  19   10   12 2
  20   11   20 1
  21   11   37 1
  22   11   38 1
  23   13   16 1
  24   13   14 1
  25   13   39 1
  26   14   15 1
  27   14   19 1
  28   14   40 1
  29   16   17 1
  30   16   41 1
  31   16   42 1
  32   17   18 1
  33   17   43 1
  34   17   44 1
  35   18   19 1
  36   18   45 1
  37   18   46 1
  38   19   47 1
  39   19   48 1
  40   20   21 ar
  41   20   25 ar
  42   21   22 ar
  43   21   49 1
  44   22   23 ar
  45   22   50 1
  46   23   24 ar
  47   23   26 1
  48   24   25 ar
  49   24   51 1
  50   25   52 1
  51   26   27 1
  52   26   30 2
  53   27   28 2
  54   27   53 1
  55   28   29 1
  56   29   30 1
  57   29   31 1
  58   30   54 1
  59   31   55 1
  60   31   56 1
  61   31   57 1

#	End of record

