#	Name: ASD03910098
#	Creating user name:	WinNT
#	Creation time:	15. 06. 2019 20:47

#	Modifying user name:	WinNT
#	Modification time:	15. 06. 2019 20:47

#	Program:	/corina/corina34_cracker 3.40 0067  02.08.2006

@<TRIPOS>MOLECULE
ASD03910098
   8    6    0    0    0
SMALL
NO_CHARGES


@<TRIPOS>ATOM
   1 P1            -0.0189     1.5408     0.0105 P.3     
   2 O2             0.0021    -0.0041     0.0020 O.3     
   3 O3             1.4916     2.0980    -0.0009 O.3     
   4 O4            -0.7976     2.0741    -1.2938 O.3     
   5 O5            -0.7420     2.0390     1.2817 O.2     
   6 H6             2.0207     1.8157     0.7576 H       
   7 H7            -1.7158     1.7766    -1.3528 H       
   8 Na8            7.0207     7.0980     6.2817 Du      
@<TRIPOS>BOND
   1    1    2 1
   2    1    3 1
   3    1    4 1
   4    1    5 2
   5    3    6 1
   6    4    7 1

#	End of record

