#	Name: ASD01911396
#	Creating user name:	WinNT
#	Creation time:	15. 06. 2019 19:57

#	Modifying user name:	WinNT
#	Modification time:	15. 06. 2019 19:57

#	Program:	/corina/corina34_cracker 3.40 0067  02.08.2006

@<TRIPOS>MOLECULE
ASD01911396
  45   47    0    0    0
SMALL
NO_CHARGES


@<TRIPOS>ATOM
   1 N1            -0.0169     1.3965     0.0097 N.2     
   2 N2             0.0021    -0.0041     0.0020 N.pl3   
   3 C3             1.2284     1.8226     0.0001 C.2     
   4 C4             2.0722     0.6950    -0.0140 C.2     
   5 C5             1.2909    -0.4070    -0.0125 C.2     
   6 C6             1.7727    -1.8348    -0.0243 C.3     
   7 C7             1.6661     3.2408     0.0031 C.ar    
   8 C8             0.7207     4.2633     0.0177 C.ar    
   9 C9            -1.1724    -0.8798     0.0085 C.3     
  10 C10           -1.5883    -1.1729    -1.4100 C.2     
  11 O11           -2.6485    -1.9606    -1.6494 O.3     
  12 O12           -0.9674    -0.6990    -2.3318 O.2     
  13 C13            3.0474    -1.9360    -0.8645 C.3     
  14 C14            1.1354     5.5848     0.0204 C.ar    
  15 C15            2.4902     5.8874     0.0085 C.ar    
  16 C16            3.4287     4.8729    -0.0064 C.ar    
  17 C17            3.0239     3.5528    -0.0029 C.ar    
  18 C18            3.5366    -3.3856    -0.8765 C.3     
  19 C19            3.8327    -3.8358     0.5554 C.3     
  20 C20            2.5580    -3.7346     1.3957 C.3     
  21 C21            2.0688    -2.2850     1.4077 C.3     
  22 O22            0.2158     6.5854     0.0341 O.3     
  23 C23            0.7143     7.9246     0.0361 C.3     
  24 H24            3.1521     0.7089    -0.0245 H       
  25 H25            1.0023    -2.4747    -0.4544 H       
  26 H26           -0.3330     4.0264     0.0265 H       
  27 H27           -0.9269    -1.8130     0.5154 H       
  28 H28           -1.9908    -0.3861     0.5325 H       
  29 H29           -2.8769    -2.1198    -2.5754 H       
  30 H30            2.8364    -1.6152    -1.8847 H       
  31 H31            3.8178    -1.2960    -0.4344 H       
  32 H32            2.8118     6.9184     0.0107 H       
  33 H33            4.4816     5.1134    -0.0162 H       
  34 H34            3.7597     2.7623    -0.0145 H       
  35 H35            2.7661    -4.0255    -1.3066 H       
  36 H36            4.4446    -3.4577    -1.4751 H       
  37 H37            4.1812    -4.8685     0.5469 H       
  38 H38            4.6031    -3.1959     0.9856 H       
  39 H39            1.7876    -4.3746     0.9656 H       
  40 H40            2.7690    -4.0554     2.4159 H       
  41 H41            2.8393    -1.6451     1.8378 H       
  42 H42            1.1608    -2.2129     2.0063 H       
  43 H43            1.3310     8.0815     0.9210 H       
  44 H44            1.3141     8.0904    -0.8588 H       
  45 H45           -0.1220     8.6236     0.0475 H       
@<TRIPOS>BOND
   1    1    2 1
   2    1    3 2
   3    2    9 1
   4    2    5 1
   5    3    4 1
   6    3    7 1
   7    4    5 2
   8    4   24 1
   9    5    6 1
  10    6   13 1
  11    6   21 1
  12    6   25 1
  13    7    8 ar
  14    7   17 ar
  15    8   14 ar
  16    8   26 1
  17    9   10 1
  18    9   27 1
  19    9   28 1
  20   10   11 1
  21   10   12 2
  22   11   29 1
  23   13   18 1
  24   13   30 1
  25   13   31 1
  26   14   15 ar
  27   14   22 1
  28   15   16 ar
  29   15   32 1
  30   16   17 ar
  31   16   33 1
  32   17   34 1
  33   18   19 1
  34   18   35 1
  35   18   36 1
  36   19   20 1
  37   19   37 1
  38   19   38 1
  39   20   21 1
  40   20   39 1
  41   20   40 1
  42   21   41 1
  43   21   42 1
  44   22   23 1
  45   23   43 1
  46   23   44 1
  47   23   45 1

#	End of record

