#	Name: ASD00560001
#	Creating user name:	WinNT
#	Creation time:	15. 06. 2019 18:36

#	Modifying user name:	WinNT
#	Modification time:	15. 06. 2019 18:36

#	Program:	/corina/corina34_cracker 3.40 0067  02.08.2006

@<TRIPOS>MOLECULE
ASD00560001
  35   38    0    0    0
SMALL
NO_CHARGES


@<TRIPOS>ATOM
   1 C1            -1.1888     1.8065     0.0766 C.2     
   2 C2            -2.0767     0.7258     0.1177 C.2     
   3 N3            -1.3079    -0.4022     0.0124 N.pl3   
   4 C4            -0.0060    -0.0034    -0.0880 C.2     
   5 N5             0.0606     1.2965    -0.0553 N.2     
   6 C6            -1.7129     3.1170     0.1668 C.2     
   7 N7            -3.0505     3.2664     0.2888 N.am    
   8 C8            -3.8648     2.1739     0.3231 C.2     
   9 N9            -3.3901     0.9511     0.2398 N.2     
  10 O10           -0.9761     4.0880     0.1356 O.2     
  11 N11           -5.2193     2.3559     0.4477 N.pl3   
  12 Br12           1.4770    -1.1645    -0.2569 Br      
  13 C13           -1.7934    -1.7844     0.0089 C.3     
  14 O14           -2.7941    -1.9554     1.0352 O.3     
  15 C15           -4.0356    -2.2266     0.4088 C.3     
  16 C16           -3.6641    -2.9632    -0.9056 C.3     
  17 C17           -2.4667    -2.1035    -1.3530 C.3     
  18 C18           -5.0391    -3.0550     1.1836 C.3     
  19 O19           -4.8091    -2.8526    -1.7585 O.3     
  20 P20           -6.2162    -3.4369    -1.1751 P.3     
  21 O21           -6.2602    -3.0687     0.4054 O.3     
  22 O22           -7.4559    -2.7460    -1.9354 O.3     
  23 O23           -6.2667    -4.9052    -1.3537 O.2     
  24 O24           -2.9068    -0.9080    -2.0005 O.3     
  25 H25           -3.4329     4.1555     0.3526 H       
  26 H26           -5.5845     3.2524     0.5100 H       
  27 H27           -5.8115     1.5881     0.4736 H       
  28 H28           -0.9632    -2.4688     0.1832 H       
  29 H29           -4.5074    -1.2787     0.1499 H       
  30 H30           -3.3784    -4.0005    -0.7306 H       
  31 H31           -1.7961    -2.6716    -1.9976 H       
  32 H32           -4.6657    -4.0714     1.3087 H       
  33 H33           -5.2233    -2.6020     2.1577 H       
  34 H34           -8.3222    -3.0516    -1.6334 H       
  35 H35           -2.1876    -0.3351    -2.2996 H       
@<TRIPOS>BOND
   1    1    2 2
   2    1    6 1
   3    1    5 1
   4    2    3 1
   5    2    9 1
   6    3    4 1
   7    3   13 1
   8    4    5 2
   9    4   12 1
  10    6    7 am
  11    6   10 2
  12    7    8 1
  13    7   25 1
  14    8    9 2
  15    8   11 1
  16   11   26 1
  17   11   27 1
  18   13   14 1
  19   13   17 1
  20   13   28 1
  21   14   15 1
  22   15   16 1
  23   15   18 1
  24   15   29 1
  25   16   17 1
  26   16   19 1
  27   16   30 1
  28   17   24 1
  29   17   31 1
  30   18   21 1
  31   18   32 1
  32   18   33 1
  33   19   20 1
  34   20   21 1
  35   20   22 1
  36   20   23 2
  37   22   34 1
  38   24   35 1

#	End of record

