#	Name: ASD02408453
#	Creating user name:	WinNT
#	Creation time:	15. 06. 2019 20:21

#	Modifying user name:	WinNT
#	Modification time:	15. 06. 2019 20:21

#	Program:	/corina/corina34_cracker 3.40 0067  02.08.2006

@<TRIPOS>MOLECULE
ASD02408453
  38   39    0    0    0
SMALL
NO_CHARGES


@<TRIPOS>ATOM
   1 C1             0.2479     1.1202    -0.1943 C.2     
   2 C2             0.1589    -0.2792    -0.1268 C.2     
   3 N3            -1.1646    -0.5822    -0.0891 N.pl3   
   4 N4            -1.8914     0.6142    -0.1327 N.2     
   5 C5            -1.0667     1.6226    -0.1999 C.2     
   6 C6            -1.7343    -1.9300    -0.0163 C.3     
   7 C7            -2.5748    -2.0603     1.2556 C.3     
   8 C8            -1.6677    -1.9351     2.4813 C.3     
   9 C9            -1.7545    -2.1804    -2.5021 C.3     
  10 C10           -2.6192    -2.1764    -1.2398 C.3     
  11 C11            1.5790     1.7245    -0.2468 C.2     
  12 N12            2.6453     0.8908    -0.2267 N.am    
  13 N13            1.2869    -1.0066    -0.1124 N.2     
  14 O14            1.7226     2.9328    -0.3067 O.2     
  15 C15            2.4626    -0.4521    -0.1601 C.2     
  16 C16            3.6783    -1.3424    -0.1405 C.3     
  17 C17            3.2377    -2.8056    -0.0635 C.3     
  18 C18            4.4719    -3.7096    -0.0436 C.3     
  19 H19           -1.3450     2.6652    -0.2454 H       
  20 H20           -0.9290    -2.6642     0.0036 H       
  21 H21           -3.3259    -1.2707     1.2772 H       
  22 H22           -3.0687    -3.0319     1.2667 H       
  23 H23           -2.2494    -2.1212     3.3842 H       
  24 H24           -0.8608    -2.6646     2.4122 H       
  25 H25           -1.2469    -0.9304     2.5208 H       
  26 H26           -1.3301    -1.1881    -2.6549 H       
  27 H27           -0.9494    -2.9063    -2.3887 H       
  28 H28           -2.3680    -2.4495    -3.3619 H       
  29 H29           -3.1188    -3.1399    -1.1387 H       
  30 H30           -3.3659    -1.3858    -1.3134 H       
  31 H31            3.5438     1.2549    -0.2603 H       
  32 H32            4.2586    -1.1851    -1.0497 H       
  33 H33            4.2913    -1.1014     0.7280 H       
  34 H34            2.6574    -2.9629     0.8457 H       
  35 H35            2.6247    -3.0466    -0.9320 H       
  36 H36            5.0522    -3.5522    -0.9528 H       
  37 H37            5.0848    -3.4685     0.8249 H       
  38 H38            4.1580    -4.7519     0.0112 H       
@<TRIPOS>BOND
   1    1    2 2
   2    1   11 1
   3    1    5 1
   4    2    3 1
   5    2   13 1
   6    3    4 1
   7    3    6 1
   8    4    5 2
   9    5   19 1
  10    6    7 1
  11    6   10 1
  12    6   20 1
  13    7    8 1
  14    7   21 1
  15    7   22 1
  16    8   23 1
  17    8   24 1
  18    8   25 1
  19    9   10 1
  20    9   26 1
  21    9   27 1
  22    9   28 1
  23   10   29 1
  24   10   30 1
  25   11   12 am
  26   11   14 2
  27   12   15 1
  28   12   31 1
  29   13   15 2
  30   15   16 1
  31   16   17 1
  32   16   32 1
  33   16   33 1
  34   17   18 1
  35   17   34 1
  36   17   35 1
  37   18   36 1
  38   18   37 1
  39   18   38 1

#	End of record

