#	Name: ASD01200115
#	Creating user name:	WinNT
#	Creation time:	15. 06. 2019 19:08

#	Modifying user name:	WinNT
#	Modification time:	15. 06. 2019 19:08

#	Program:	/corina/corina34_cracker 3.40 0067  02.08.2006

@<TRIPOS>MOLECULE
ASD01200115
  41   44    0    0    0
SMALL
NO_CHARGES


@<TRIPOS>ATOM
   1 C1            -0.0167     1.3792     0.0096 C.ar    
   2 C2             0.0021    -0.0041     0.0020 C.ar    
   3 C3             1.2087    -0.6842    -0.0132 C.ar    
   4 C4             2.3920     0.0166    -0.0208 C.ar    
   5 C5             2.3846     1.4137    -0.0132 C.ar    
   6 C6             1.1648     2.0919     0.0022 C.ar    
   7 C7             3.8409    -0.4021    -0.0369 C.3     
   8 N8             4.6266     0.8371    -0.0378 N.am    
   9 C9             3.7832     1.8837    -0.0241 C.2     
  10 O10            4.1240     3.0505    -0.0207 O.2     
  11 S11            4.2232    -1.3815     1.4413 S.3     
  12 C12            6.0892     0.9201    -0.0514 C.3     
  13 C13            6.5770     0.9561    -1.4768 C.2     
  14 C14            6.7643     2.0627    -2.1976 C.2     
  15 C15            7.2197     1.8487    -3.4872 C.2     
  16 C16            7.4022     0.5683    -3.8135 C.2     
  17 S17            6.9938    -0.4540    -2.4418 S.3     
  18 C18            3.6289    -3.0373     0.9988 C.3     
  19 C19            3.8791    -3.9837     2.1445 C.2     
  20 O20            4.4064    -3.5808     3.1597 O.2     
  21 N21            3.5169    -5.2777     2.0411 N.am    
  22 C22            3.7476    -6.1506     3.0979 C.2     
  23 N23            3.4393    -7.4097     3.1019 N.2     
  24 C24            3.7311    -8.0929     4.1928 C.2     
  25 C25            4.3138    -7.3771     5.1565 C.2     
  26 S26            4.4861    -5.7216     4.5790 S.3     
  27 H27           -0.9607     1.9038     0.0169 H       
  28 H28           -0.9267    -0.5552     0.0083 H       
  29 H29            1.2202    -1.7641    -0.0188 H       
  30 H30            1.1457     3.1718     0.0078 H       
  31 H31            4.0535    -0.9810    -0.9357 H       
  32 H32            6.4065     1.8264     0.4643 H       
  33 H33            6.5072     0.0493     0.4538 H       
  34 H34            6.5747     3.0508    -1.8050 H       
  35 H35            7.4123     2.6571    -4.1769 H       
  36 H36            7.7509     0.2137    -4.7722 H       
  37 H37            2.5601    -2.9956     0.7887 H       
  38 H38            4.1596    -3.3894     0.1142 H       
  39 H39            3.0951    -5.5999     1.2292 H       
  40 H40            3.5158    -9.1461     4.2970 H       
  41 H41            4.6288    -7.7487     6.1204 H       
@<TRIPOS>BOND
   1    1    2 ar
   2    1    6 ar
   3    1   27 1
   4    2    3 ar
   5    2   28 1
   6    3    4 ar
   7    3   29 1
   8    4    5 ar
   9    4    7 1
  10    5    6 ar
  11    5    9 1
  12    6   30 1
  13    7    8 1
  14    7   11 1
  15    7   31 1
  16    8    9 am
  17    8   12 1
  18    9   10 2
  19   11   18 1
  20   12   13 1
  21   12   32 1
  22   12   33 1
  23   13   14 2
  24   13   17 1
  25   14   15 1
  26   14   34 1
  27   15   16 2
  28   15   35 1
  29   16   17 1
  30   16   36 1
  31   18   19 1
  32   18   37 1
  33   18   38 1
  34   19   20 2
  35   19   21 am
  36   21   22 1
  37   21   39 1
  38   22   23 2
  39   22   26 1
  40   23   24 1
  41   24   25 2
  42   24   40 1
  43   25   26 1
  44   25   41 1

#	End of record

