#	Name: ASD02560500
#	Creating user name:	WinNT
#	Creation time:	15. 06. 2019 20:25

#	Modifying user name:	WinNT
#	Modification time:	15. 06. 2019 20:25

#	Program:	/corina/corina34_cracker 3.40 0067  02.08.2006

@<TRIPOS>MOLECULE
ASD02560500
  43   46    0    0    0
SMALL
NO_CHARGES


@<TRIPOS>ATOM
   1 C1             0.0913     0.9092     1.0834 C.2     
   2 C2             0.2586    -0.4871     1.0944 C.2     
   3 C3             1.4524    -1.0326     0.7872 C.2     
   4 N4             2.5183    -0.2378     0.4604 N.pl3   
   5 C5             2.3847     1.1318     0.4412 C.2     
   6 C6             1.1392     1.7129     0.7612 C.2     
   7 C7             3.8097    -0.5256     0.1153 C.2     
   8 C8             4.4411     0.6799    -0.1086 C.2     
   9 N9             3.5464     1.6635     0.0984 N.2     
  10 C10            5.8568     0.8603    -0.5068 C.ar    
  11 N11            4.3794    -1.7949     0.0103 N.3     
  12 C12            3.3595    -2.8429     0.1504 C.3     
  13 C13            6.8655     0.1669     0.1606 C.ar    
  14 C14            3.8371    -4.1375    -0.5305 C.3     
  15 C15            8.1825     0.3391    -0.2148 C.ar    
  16 C16            8.5032     1.1979    -1.2506 C.ar    
  17 C17            7.5073     1.8893    -1.9173 C.ar    
  18 C18            6.1856     1.7210    -1.5554 C.ar    
  19 Cl19           4.9369     2.5890    -2.3927 Cl      
  20 C20           -0.9028    -1.3784     1.4519 C.3     
  21 C21            3.9010    -5.2166     0.5701 C.3     
  22 C22            2.9172    -4.7117     1.6547 C.3     
  23 C23            3.1499    -3.1804     1.6410 C.3     
  24 H24           -0.8682     1.3416     1.3259 H       
  25 H25            1.5692    -2.1062     0.7993 H       
  26 H26            1.0196     2.7861     0.7499 H       
  27 H27            4.8832    -1.8944    -0.8582 H       
  28 H28            2.4208    -2.5118    -0.2939 H       
  29 H29            6.6169    -0.5035     0.9700 H       
  30 H30            3.1298    -4.4352    -1.3046 H       
  31 H31            4.8256    -3.9882    -0.9648 H       
  32 H32            8.9644    -0.1977     0.3017 H       
  33 H33            9.5354     1.3296    -1.5399 H       
  34 H34            7.7640     2.5585    -2.7253 H       
  35 H35           -1.7778    -0.7655     1.6687 H       
  36 H36           -1.1223    -2.0422     0.6158 H       
  37 H37           -0.6484    -1.9719     2.3300 H       
  38 H38            3.5755    -6.1804     0.1788 H       
  39 H39            4.9105    -5.2893     0.9749 H       
  40 H40            1.8884    -4.9485     1.3833 H       
  41 H41            3.1674    -5.1317     2.6289 H       
  42 H42            4.0380    -2.9243     2.2187 H       
  43 H43            2.2762    -2.6583     2.0311 H       
@<TRIPOS>BOND
   1    1    2 1
   2    1    6 2
   3    1   24 1
   4    2    3 2
   5    2   20 1
   6    3    4 1
   7    3   25 1
   8    4    5 1
   9    4    7 1
  10    5    6 1
  11    5    9 2
  12    6   26 1
  13    7    8 2
  14    7   11 1
  15    8    9 1
  16    8   10 1
  17   10   13 ar
  18   10   18 ar
  19   11   12 1
  20   11   27 1
  21   12   14 1
  22   12   23 1
  23   12   28 1
  24   13   15 ar
  25   13   29 1
  26   14   21 1
  27   14   30 1
  28   14   31 1
  29   15   16 ar
  30   15   32 1
  31   16   17 ar
  32   16   33 1
  33   17   18 ar
  34   17   34 1
  35   18   19 1
  36   20   35 1
  37   20   36 1
  38   20   37 1
  39   21   22 1
  40   21   38 1
  41   21   39 1
  42   22   23 1
  43   22   40 1
  44   22   41 1
  45   23   42 1
  46   23   43 1

#	End of record

