#	Name: ASD00170348
#	Creating user name:	WinNT
#	Creation time:	15. 06. 2019 18:32

#	Modifying user name:	WinNT
#	Modification time:	15. 06. 2019 18:32

#	Program:	/corina/corina34_cracker 3.40 0067  02.08.2006

@<TRIPOS>MOLECULE
ASD00170348
  23   23    0    0    0
SMALL
NO_CHARGES


@<TRIPOS>ATOM
   1 C1             0.0617     1.1490     0.2895 C.ar    
   2 C2            -0.0680    -0.2439     0.2501 C.ar    
   3 N3            -1.2664    -0.7975     0.1179 N.ar    
   4 C4            -2.3442    -0.0285     0.0231 C.ar    
   5 C5            -2.2105     1.3680     0.0630 C.ar    
   6 N6            -1.0040     1.9155     0.2009 N.ar    
   7 C7            -3.4060     2.2289    -0.0421 C.2     
   8 N8            -3.2928     3.5557     0.1164 N.2     
   9 C9            -4.0625     4.1861     0.9897 C.2     
  10 N10           -4.8904     3.4745     1.8074 N.pl3   
  11 N11           -3.5960    -0.6021    -0.1153 N.pl3   
  12 N12            1.0568    -1.0459     0.3486 N.pl3   
  13 Cl13           1.6325     1.8674     0.4632 Cl      
  14 O14           -4.4953     1.7336    -0.2727 O.2     
  15 N15           -4.0276     5.5472     1.0718 N.pl3   
  16 H16           -4.8611     2.5049     1.8024 H       
  17 H17           -5.5085     3.9380     2.3940 H       
  18 H18           -3.6798    -1.5618    -0.2285 H       
  19 H19           -4.3895    -0.0445    -0.0991 H       
  20 H20            1.9335    -0.6420     0.4449 H       
  21 H21            0.9679    -2.0114     0.3213 H       
  22 H22           -3.4388     6.0533     0.4902 H       
  23 H23           -4.5915     6.0091     1.7117 H       
@<TRIPOS>BOND
   1    1    2 ar
   2    1   13 1
   3    1    6 ar
   4    2    3 ar
   5    2   12 1
   6    3    4 ar
   7    4    5 ar
   8    4   11 1
   9    5    6 ar
  10    5    7 1
  11    7    8 1
  12    7   14 2
  13    8    9 2
  14    9   10 1
  15    9   15 1
  16   10   16 1
  17   10   17 1
  18   11   18 1
  19   11   19 1
  20   12   20 1
  21   12   21 1
  22   15   22 1
  23   15   23 1

#	End of record

