#	Name: ASD01916917
#	Creating user name:	WinNT
#	Creation time:	15. 06. 2019 20:08

#	Modifying user name:	WinNT
#	Modification time:	15. 06. 2019 20:08

#	Program:	/corina/corina34_cracker 3.40 0067  02.08.2006

@<TRIPOS>MOLECULE
ASD01916917
  66   70    0    0    0
SMALL
NO_CHARGES


@<TRIPOS>ATOM
   1 C1            -0.0168     1.3841     0.0097 C.ar    
   2 C2             0.0021    -0.0041     0.0020 C.ar    
   3 C3             1.2115    -0.6849    -0.0128 C.ar    
   4 C4             2.4006     0.0178    -0.0204 C.ar    
   5 C5             2.3836     1.4138    -0.0132 C.ar    
   6 C6             1.1668     2.0924     0.0022 C.ar    
   7 C7             3.6582     2.1729    -0.0209 C.2     
   8 N8             3.7722     3.5080    -0.0151 N.2     
   9 N9             4.8636     1.6471    -0.0286 N.2     
  10 N10            5.7715     2.7184    -0.0333 N.pl3   
  11 C11            5.0352     3.8439    -0.0244 C.2     
  12 C12            5.5742     5.2512    -0.0253 C.3     
  13 C13            7.2337     2.6279    -0.0419 C.3     
  14 C14            7.7268     2.5983    -1.4656 C.2     
  15 O15            6.9349     2.6478    -2.3828 O.2     
  16 N16            9.0479     2.5167    -1.7196 N.am    
  17 C17            9.5505     2.4864    -3.1015 C.3     
  18 C18           10.6409     3.5533    -3.2464 C.3     
  19 N19           11.6616     3.3497    -2.2097 N.3     
  20 C20           11.0970     3.5235    -0.8647 C.3     
  21 C21           10.0257     2.4616    -0.6222 C.3     
  22 C22           12.7476     4.1945    -2.4071 C.ar    
  23 N23           12.7493     5.0322    -3.4324 N.ar    
  24 C24           13.8207     4.1562    -1.5223 C.ar    
  25 C25           13.7600     5.8510    -3.6552 C.ar    
  26 C26           14.8591     5.8624    -2.8205 C.ar    
  27 C27           14.8945     5.0026    -1.7304 C.ar    
  28 C28            5.0726     5.9886    -1.2685 C.3     
  29 C29            5.6198     7.4174    -1.2695 C.3     
  30 C30            5.1391     8.1484    -0.0143 C.3     
  31 C31            5.6406     7.4111     1.2289 C.3     
  32 C32            5.0934     5.9823     1.2298 C.3     
  33 F33            3.5780    -0.6445    -0.0343 F       
  34 O34           -1.1662    -0.6978     0.0095 O.3     
  35 C35           -1.0740    -2.1238     0.0010 C.3     
  36 H36           -0.9598     1.9104     0.0170 H       
  37 H37            1.2228    -1.7649    -0.0180 H       
  38 H38            1.1504     3.1722     0.0074 H       
  39 H39            6.6638     5.2230    -0.0344 H       
  40 H40            7.6543     3.4933     0.4704 H       
  41 H41            7.5443     1.7167     0.4693 H       
  42 H42            9.9690     1.5034    -3.3175 H       
  43 H43            8.7350     2.7001    -3.7925 H       
  44 H44           11.1013     3.4715    -4.2311 H       
  45 H45           10.1989     4.5430    -3.1322 H       
  46 H46           11.8881     3.4202    -0.1220 H       
  47 H47           10.6486     4.5137    -0.7837 H       
  48 H48            9.5252     2.6563     0.3263 H       
  49 H49           10.4871     1.4743    -0.6001 H       
  50 H50           13.8150     3.4751    -0.6842 H       
  51 H51           13.7268     6.5206    -4.5020 H       
  52 H52           15.6818     6.5358    -3.0110 H       
  53 H53           15.7431     4.9924    -1.0625 H       
  54 H54            5.4151     5.4678    -2.1627 H       
  55 H55            3.9831     6.0168    -1.2594 H       
  56 H56            6.7094     7.3892    -1.2786 H       
  57 H57            5.2625     7.9427    -2.1552 H       
  58 H58            5.5289     9.1664    -0.0150 H       
  59 H59            4.0495     8.1767    -0.0052 H       
  60 H60            6.7302     7.3829     1.2198 H       
  61 H61            5.2982     7.9319     2.1231 H       
  62 H62            4.0038     6.0105     1.2390 H       
  63 H63            5.4507     5.4570     2.1156 H       
  64 H64           -0.5463    -2.4484    -0.8959 H       
  65 H65           -0.5293    -2.4579     0.8840 H       
  66 H66           -2.0760    -2.5527     0.0083 H       
@<TRIPOS>BOND
   1    1    2 ar
   2    1    6 ar
   3    1   36 1
   4    2    3 ar
   5    2   34 1
   6    3    4 ar
   7    3   37 1
   8    4    5 ar
   9    4   33 1
  10    5    6 ar
  11    5    7 1
  12    6   38 1
  13    7    8 1
  14    7    9 2
  15    8   11 2
  16    9   10 1
  17   10   11 1
  18   10   13 1
  19   11   12 1
  20   12   28 1
  21   12   32 1
  22   12   39 1
  23   13   14 1
  24   13   40 1
  25   13   41 1
  26   14   15 2
  27   14   16 am
  28   16   17 1
  29   16   21 1
  30   17   18 1
  31   17   42 1
  32   17   43 1
  33   18   19 1
  34   18   44 1
  35   18   45 1
  36   19   20 1
  37   19   22 1
  38   20   21 1
  39   20   46 1
  40   20   47 1
  41   21   48 1
  42   21   49 1
  43   22   23 ar
  44   22   24 ar
  45   23   25 ar
  46   24   27 ar
  47   24   50 1
  48   25   26 ar
  49   25   51 1
  50   26   27 ar
  51   26   52 1
  52   27   53 1
  53   28   29 1
  54   28   54 1
  55   28   55 1
  56   29   30 1
  57   29   56 1
  58   29   57 1
  59   30   31 1
  60   30   58 1
  61   30   59 1
  62   31   32 1
  63   31   60 1
  64   31   61 1
  65   32   62 1
  66   32   63 1
  67   34   35 1
  68   35   64 1
  69   35   65 1
  70   35   66 1

#	End of record

