#	Name: ASD01815906
#	Creating user name:	WinNT
#	Creation time:	15. 06. 2019 19:34

#	Modifying user name:	WinNT
#	Modification time:	15. 06. 2019 19:34

#	Program:	/corina/corina34_cracker 3.40 0067  02.08.2006

@<TRIPOS>MOLECULE
ASD01815906
  50   55    0    0    0
SMALL
NO_CHARGES


@<TRIPOS>ATOM
   1 C1            -0.0755     1.3135     0.1763 C.ar    
   2 C2            -0.0315    -0.0710     0.1644 C.ar    
   3 C3             1.1769    -0.7363     0.0950 C.ar    
   4 C4             2.3673    -0.0165     0.0366 C.ar    
   5 C5             2.3197     1.3868     0.0488 C.ar    
   6 C6             1.0945     2.0466     0.1187 C.ar    
   7 N7             3.5823    -0.6780    -0.0322 N.pl3   
   8 C8             4.7607    -0.0376    -0.0905 C.2     
   9 C9             4.8385     1.3331    -0.0852 C.2     
  10 C10            3.5924     2.1299    -0.0138 C.2     
  11 C11            5.9163     2.3159    -0.1362 C.2     
  12 N12            5.3224     3.5282    -0.0968 N.am    
  13 N13            3.9344     3.3863    -0.0239 N.2     
  14 C14            5.9996     4.7502    -0.1249 C.ar    
  15 O15            7.1133     2.0881    -0.2009 O.2     
  16 C16            3.5814    -2.1429    -0.0413 C.3     
  17 C17            3.7087    -2.6541     1.3706 C.ar    
  18 C18            2.5842    -2.7680     2.1672 C.ar    
  19 C19            2.6977    -3.2357     3.4618 C.ar    
  20 C20            3.9425    -3.5922     3.9629 C.ar    
  21 C21            5.0696    -3.4772     3.1605 C.ar    
  22 C22            4.9490    -3.0137     1.8650 C.ar    
  23 N23            4.0610    -4.0669     5.2767 N.pl3   
  24 C24            5.2074    -4.4464     5.8853 C.2     
  25 F25            1.0506     3.3969     0.1304 F       
  26 F26            1.2039    -2.0870     0.0842 F       
  27 C27            4.8957    -4.8384     7.1424 C.2     
  28 C28            3.5139    -4.6942     7.3086 C.2     
  29 N29            3.0138    -4.2263     6.1933 N.2     
  30 C30            5.7986     5.7021     0.8737 C.ar    
  31 C31            6.8980     5.0466    -1.1494 C.ar    
  32 N32            7.3281     7.1434    -0.1834 N.ar    
  33 C33            6.4897     6.9006     0.8083 C.ar    
  34 F34            4.9421     5.4593     1.8899 F       
  35 C35            7.5471     6.2631    -1.1427 C.ar    
  36 F36            6.2999     7.8341     1.7662 F       
  37 H37           -1.0273     1.8215     0.2264 H       
  38 H38           -0.9510    -0.6357     0.2101 H       
  39 H39            5.6714    -0.6158    -0.1426 H       
  40 H40            2.6486    -2.5030    -0.4754 H       
  41 H41            4.4214    -2.5031    -0.6353 H       
  42 H42            1.6162    -2.4905     1.7769 H       
  43 H43            1.8192    -3.3238     4.0838 H       
  44 H44            6.0393    -3.7534     3.5477 H       
  45 H45            5.8254    -2.9240     1.2404 H       
  46 H46            6.1943    -4.4386     5.4467 H       
  47 H47            5.5908    -5.1990     7.8862 H       
  48 H48            2.9566    -4.9249     8.2045 H       
  49 H49            7.0834     4.3323    -1.9379 H       
  50 H50            8.2442     6.4992    -1.9331 H       
@<TRIPOS>BOND
   1    1    2 ar
   2    1    6 ar
   3    1   37 1
   4    2    3 ar
   5    2   38 1
   6    3    4 ar
   7    3   26 1
   8    4    5 ar
   9    4    7 1
  10    5    6 ar
  11    5   10 1
  12    6   25 1
  13    7    8 1
  14    7   16 1
  15    8    9 2
  16    8   39 1
  17    9   10 1
  18    9   11 1
  19   10   13 2
  20   11   12 am
  21   11   15 2
  22   12   13 1
  23   12   14 1
  24   14   30 ar
  25   14   31 ar
  26   16   17 1
  27   16   40 1
  28   16   41 1
  29   17   18 ar
  30   17   22 ar
  31   18   19 ar
  32   18   42 1
  33   19   20 ar
  34   19   43 1
  35   20   21 ar
  36   20   23 1
  37   21   22 ar
  38   21   44 1
  39   22   45 1
  40   23   24 1
  41   23   29 1
  42   24   27 2
  43   24   46 1
  44   27   28 1
  45   27   47 1
  46   28   29 2
  47   28   48 1
  48   30   34 1
  49   30   33 ar
  50   31   35 ar
  51   31   49 1
  52   32   33 ar
  53   32   35 ar
  54   33   36 1
  55   35   50 1

#	End of record

