#	Name: ASD00960190
#	Creating user name:	WinNT
#	Creation time:	15. 06. 2019 18:53

#	Modifying user name:	WinNT
#	Modification time:	15. 06. 2019 18:53

#	Program:	/corina/corina34_cracker 3.40 0067  02.08.2006

@<TRIPOS>MOLECULE
ASD00960190
  49   52    0    0    0
SMALL
NO_CHARGES


@<TRIPOS>ATOM
   1 C1             0.0528     1.3059     0.0217 C.2     
   2 C2             0.1001    -0.0839     0.0199 C.2     
   3 N3             1.3375     1.7769     0.0084 N.pl3   
   4 C4             2.1940     0.7020    -0.0018 C.2     
   5 C5             1.4336    -0.4582     0.0052 C.2     
   6 N6             1.8820     3.0685     0.0034 N.2     
   7 C7             3.1860     3.2310    -0.0108 C.2     
   8 N8             4.0289     2.1914    -0.0213 N.2     
   9 C9             3.5900     0.9473    -0.0162 C.2     
  10 N10            4.4827    -0.1066    -0.0272 N.pl3   
  11 C11            3.7395     4.6061    -0.0159 C.2     
  12 N12            2.9116     5.6655    -0.1084 N.am    
  13 O13            4.9398     4.7781     0.0634 O.2     
  14 C14            3.4469     7.0250    -0.0021 C.3     
  15 C15            2.3105     8.0148    -0.0148 C.ar    
  16 C16            1.7872     8.4815     1.1765 C.ar    
  17 C17            0.7448     9.3894     1.1649 C.ar    
  18 C18            0.2261     9.8308    -0.0380 C.ar    
  19 C19            0.7500     9.3647    -1.2293 C.ar    
  20 C20            1.7953     8.4602    -1.2177 C.ar    
  21 C21           -1.1595     2.1224     0.0301 C.2     
  22 O22           -1.0771     3.3327     0.1233 O.2     
  23 O23           -2.3700     1.5338    -0.0655 O.3     
  24 C24           -3.5145     2.3800     0.0608 C.3     
  25 C25           -4.7648     1.5387     0.0507 C.ar    
  26 C26           -5.3387     1.1391     1.2432 C.ar    
  27 C27           -6.4855     0.3673     1.2339 C.ar    
  28 C28           -7.0587    -0.0045     0.0322 C.ar    
  29 C29           -6.4853     0.3959    -1.1603 C.ar    
  30 C30           -5.3409     1.1713    -1.1509 C.ar    
  31 H31           -0.7493    -0.7509     0.0289 H       
  32 H32            1.8126    -1.4696     0.0005 H       
  33 H33            5.4371     0.0664    -0.0388 H       
  34 H34            4.1553    -1.0196    -0.0233 H       
  35 H35            1.9612     5.5278    -0.2454 H       
  36 H36            4.0046     7.1241     0.9291 H       
  37 H37            4.1094     7.2216    -0.8451 H       
  38 H38            2.1925     8.1366     2.1163 H       
  39 H39            0.3354     9.7535     2.0956 H       
  40 H40           -0.5888    10.5395    -0.0471 H       
  41 H41            0.3446     9.7094    -2.1691 H       
  42 H42            2.2047     8.0961    -2.1484 H       
  43 H43           -3.4561     2.9327     0.9985 H       
  44 H44           -3.5418     3.0813    -0.7732 H       
  45 H45           -4.8908     1.4296     2.1820 H       
  46 H46           -6.9334     0.0545     2.1655 H       
  47 H47           -7.9543    -0.6080     0.0249 H       
  48 H48           -6.9330     0.1051    -2.0991 H       
  49 H49           -4.8951     1.4872    -2.0825 H       
@<TRIPOS>BOND
   1    1    2 2
   2    1    3 1
   3    1   21 1
   4    2    5 1
   5    2   31 1
   6    3    4 1
   7    3    6 1
   8    4    5 2
   9    4    9 1
  10    5   32 1
  11    6    7 2
  12    7    8 1
  13    7   11 1
  14    8    9 2
  15    9   10 1
  16   10   33 1
  17   10   34 1
  18   11   12 am
  19   11   13 2
  20   12   14 1
  21   12   35 1
  22   14   15 1
  23   14   36 1
  24   14   37 1
  25   15   16 ar
  26   15   20 ar
  27   16   17 ar
  28   16   38 1
  29   17   18 ar
  30   17   39 1
  31   18   19 ar
  32   18   40 1
  33   19   20 ar
  34   19   41 1
  35   20   42 1
  36   21   22 2
  37   21   23 1
  38   23   24 1
  39   24   25 1
  40   24   43 1
  41   24   44 1
  42   25   26 ar
  43   25   30 ar
  44   26   27 ar
  45   26   45 1
  46   27   28 ar
  47   27   46 1
  48   28   29 ar
  49   28   47 1
  50   29   30 ar
  51   29   48 1
  52   30   49 1

#	End of record

