#	Name: ASD02562006
#	Creating user name:	WinNT
#	Creation time:	15. 06. 2019 20:25

#	Modifying user name:	WinNT
#	Modification time:	15. 06. 2019 20:25

#	Program:	/corina/corina34_cracker 3.40 0067  02.08.2006

@<TRIPOS>MOLECULE
ASD02562006
  64   66    0    0    0
SMALL
NO_CHARGES


@<TRIPOS>ATOM
   1 C1            -0.0167     1.3825     0.0096 C.ar    
   2 C2             0.0021    -0.0041     0.0020 C.ar    
   3 C3            -1.1802    -0.7145     0.0094 C.ar    
   4 C4            -2.4035    -0.0430     0.0247 C.ar    
   5 C5            -2.4340     1.3479     0.0324 C.ar    
   6 C6            -1.2402     2.0663     0.0308 C.ar    
   7 C7             1.3186    -0.7372    -0.0149 C.3     
   8 C8            -1.2639     3.5427     0.0390 C.2     
   9 C9            -3.6712    -0.8123     0.0321 C.2     
  10 C10           -4.5974    -0.7263    -1.1226 C.ar    
  11 C11           -3.9794    -1.5843     1.0812 C.2     
  12 C12           -3.0382    -1.6716     2.2549 C.3     
  13 C13           -3.7888    -1.3119     3.5386 C.3     
  14 C14           -2.8332    -1.4006     4.7301 C.3     
  15 C15           -3.5725    -1.0462     5.9945 C.2     
  16 C16           -5.8617    -0.1640    -0.9622 C.ar    
  17 C17           -6.7206    -0.0867    -2.0445 C.ar    
  18 C18           -6.3221    -0.5699    -3.2919 C.ar    
  19 C19           -5.0619    -1.1296    -3.4473 C.ar    
  20 C20           -4.2013    -1.2033    -2.3729 C.ar    
  21 C21           -4.6311    -1.6515    -4.7938 C.3     
  22 O22           -7.3516    -0.3649    -4.1499 O.3     
  23 C23           -8.3644     0.2208    -3.4921 C.2     
  24 N24           -8.0159     0.4066    -2.2036 N.am    
  25 O25           -9.4313     0.5358    -3.9831 O.2     
  26 C26           -8.8456     1.0148    -1.1607 C.3     
  27 F27           -2.4445     4.1993     0.0481 F       
  28 N28           -0.1517     4.2088     0.0375 N.2     
  29 O29           -4.7437    -0.7528     5.9475 O.2     
  30 O30           -2.9300    -1.0565     7.1730 O.3     
  31 C31           -3.7050    -0.7046     8.3494 C.3     
  32 O32           -0.1744     5.6246     0.0454 O.3     
  33 C33            1.1216     6.2267     0.0426 C.3     
  34 O34            1.1493     2.0773     0.0022 O.3     
  35 C35            1.6944     2.4163    -1.2745 C.3     
  36 H36           -1.1591    -1.7942     0.0031 H       
  37 H37           -3.3799     1.8690     0.0442 H       
  38 H38            1.6462    -0.9195     1.0086 H       
  39 H39            1.1980    -1.6887    -0.5327 H       
  40 H40            2.0639    -0.1336    -0.5329 H       
  41 H41           -4.9027    -2.1445     1.0866 H       
  42 H42           -2.6491    -2.6868     2.3338 H       
  43 H43           -2.2115    -0.9760     2.1102 H       
  44 H44           -4.1778    -0.2967     3.4596 H       
  45 H45           -4.6154    -2.0075     3.6832 H       
  46 H46           -2.4441    -2.4157     4.8091 H       
  47 H47           -2.0066    -0.7049     4.5855 H       
  48 H48           -6.1705     0.2096     0.0029 H       
  49 H49           -3.2210    -1.6391    -2.4971 H       
  50 H50           -4.1457    -0.8528    -5.3547 H       
  51 H51           -3.9317    -2.4762    -4.6570 H       
  52 H52           -5.5042    -2.0029    -5.3436 H       
  53 H53           -8.6702     2.0903    -1.1380 H       
  54 H54           -9.8969     0.8225    -1.3746 H       
  55 H55           -8.5869     0.5840    -0.1934 H       
  56 H56           -4.0959     0.3068     8.2378 H       
  57 H57           -4.5335    -1.4040     8.4614 H       
  58 H58           -3.0674    -0.7523     9.2322 H       
  59 H59            1.6717     5.9089     0.9284 H       
  60 H60            1.6635     5.9187    -0.8516 H       
  61 H61            1.0181     7.3117     0.0491 H       
  62 H62            1.8930     1.5048    -1.8383 H       
  63 H63            0.9820     3.0339    -1.8214 H       
  64 H64            2.6240     2.9687    -1.1376 H       
@<TRIPOS>BOND
   1    1    2 ar
   2    1   34 1
   3    1    6 ar
   4    2    3 ar
   5    2    7 1
   6    3    4 ar
   7    3   36 1
   8    4    5 ar
   9    4    9 1
  10    5    6 ar
  11    5   37 1
  12    6    8 1
  13    7   38 1
  14    7   39 1
  15    7   40 1
  16    8   27 1
  17    8   28 2
  18    9   10 1
  19    9   11 2
  20   10   16 ar
  21   10   20 ar
  22   11   12 1
  23   11   41 1
  24   12   13 1
  25   12   42 1
  26   12   43 1
  27   13   14 1
  28   13   44 1
  29   13   45 1
  30   14   15 1
  31   14   46 1
  32   14   47 1
  33   15   29 2
  34   15   30 1
  35   16   17 ar
  36   16   48 1
  37   17   18 ar
  38   17   24 1
  39   18   19 ar
  40   18   22 1
  41   19   20 ar
  42   19   21 1
  43   20   49 1
  44   21   50 1
  45   21   51 1
  46   21   52 1
  47   22   23 1
  48   23   25 2
  49   23   24 am
  50   24   26 1
  51   26   53 1
  52   26   54 1
  53   26   55 1
  54   28   32 1
  55   30   31 1
  56   31   56 1
  57   31   57 1
  58   31   58 1
  59   32   33 1
  60   33   59 1
  61   33   60 1
  62   33   61 1
  63   34   35 1
  64   35   62 1
  65   35   63 1
  66   35   64 1

#	End of record

