#	Name: ASD03200052
#	Creating user name:	WinNT
#	Creation time:	15. 06. 2019 20:34

#	Modifying user name:	WinNT
#	Modification time:	15. 06. 2019 20:34

#	Program:	/corina/corina34_cracker 3.40 0067  02.08.2006

@<TRIPOS>MOLECULE
ASD03200052
  47   50    0    0    0
SMALL
NO_CHARGES


@<TRIPOS>ATOM
   1 C1             0.9662    -1.0292    -0.1620 C.3     
   2 N2            -0.0316     0.0365    -0.0040 N.3     
   3 C3             0.2999     0.9107     1.1284 C.3     
   4 C4             1.6482     1.5884     0.8737 C.3     
   5 C5             2.7277     0.5166     0.6990 C.3     
   6 C6             2.3344    -0.4094    -0.4553 C.3     
   7 C7            -1.3130    -0.4951     0.1338 C.ar    
   8 C8            -2.0182    -0.3608     1.3271 C.ar    
   9 C9            -3.2845    -0.9013     1.4241 C.ar    
  10 N10           -3.8304    -1.5392     0.4061 N.ar    
  11 C11           -3.1991    -1.6905    -0.7432 C.ar    
  12 C12           -1.9273    -1.1734    -0.9258 C.ar    
  13 N13           -1.2613    -1.3366    -2.1479 N.am    
  14 C14           -1.4467    -2.4582    -2.8719 C.2     
  15 C15           -0.8515    -2.5762    -4.2052 C.2     
  16 O16           -2.1090    -3.3734    -2.4177 O.2     
  17 C17           -1.0041    -3.6951    -4.9936 C.2     
  18 S18           -0.1351    -3.4218    -6.5017 S.3     
  19 C19            0.3568    -1.8281    -5.9401 C.2     
  20 N20           -0.1215    -1.6066    -4.7584 N.2     
  21 C21            1.1896    -0.8784    -6.7090 C.2     
  22 N22           -1.7131    -4.8319    -4.6603 N.pl3   
  23 C23            1.7122    -1.0904    -8.0016 C.2     
  24 N24            1.9894     2.4465     2.0161 N.3     
  25 N25            1.5703     0.3188    -6.3101 N.2     
  26 N26            2.3430     0.8910    -7.3287 N.pl3   
  27 C27            2.4136     0.0095    -8.3497 C.2     
  28 H28            1.0216    -1.6139     0.7562 H       
  29 H29            0.6767    -1.6781    -0.9886 H       
  30 H30           -0.4734     1.6708     1.2390 H       
  31 H31            0.3585     0.3169     2.0406 H       
  32 H32            1.5863     2.1934    -0.0309 H       
  33 H33            3.6817     0.9936     0.4743 H       
  34 H34            2.8169    -0.0637     1.6173 H       
  35 H35            3.0777    -1.2001    -0.5570 H       
  36 H36            2.2832     0.1641    -1.3808 H       
  37 H37           -1.5798     0.1593     2.1660 H       
  38 H38           -3.8365    -0.8009     2.3469 H       
  39 H39           -3.6814    -2.2198    -1.5516 H       
  40 H40           -0.6668    -0.6424    -2.4728 H       
  41 H41           -2.1604    -4.8901    -3.8015 H       
  42 H42           -1.7639    -5.5723    -5.2848 H       
  43 H43            1.5760    -1.9755    -8.6053 H       
  44 H44            2.8764     2.9053     1.8716 H       
  45 H45            1.2589     3.1194     2.1938 H       
  46 H46            2.7541     1.7692    -7.3058 H       
  47 H47            2.9391     0.1584    -9.2814 H       
@<TRIPOS>BOND
   1    1    2 1
   2    1    6 1
   3    1   28 1
   4    1   29 1
   5    2    3 1
   6    2    7 1
   7    3    4 1
   8    3   30 1
   9    3   31 1
  10    4    5 1
  11    4   24 1
  12    4   32 1
  13    5    6 1
  14    5   33 1
  15    5   34 1
  16    6   35 1
  17    6   36 1
  18    7    8 ar
  19    7   12 ar
  20    8    9 ar
  21    8   37 1
  22    9   10 ar
  23    9   38 1
  24   10   11 ar
  25   11   12 ar
  26   11   39 1
  27   12   13 1
  28   13   14 am
  29   13   40 1
  30   14   15 1
  31   14   16 2
  32   15   17 2
  33   15   20 1
  34   17   18 1
  35   17   22 1
  36   18   19 1
  37   19   20 2
  38   19   21 1
  39   21   25 2
  40   21   23 1
  41   22   41 1
  42   22   42 1
  43   23   27 2
  44   23   43 1
  45   24   44 1
  46   24   45 1
  47   25   26 1
  48   26   27 1
  49   26   46 1
  50   27   47 1

#	End of record

