#	Name: ASD08070189
#	Creating user name:	WinNT
#	Creation time:	15. 06. 2019 21:14

#	Modifying user name:	WinNT
#	Modification time:	15. 06. 2019 21:14

#	Program:	/corina/corina34_cracker 3.40 0067  02.08.2006

@<TRIPOS>MOLECULE
ASD08070189
  34   34    0    0    0
SMALL
NO_CHARGES


@<TRIPOS>ATOM
   1 C1            -0.0167     1.3805     0.0096 C.ar    
   2 C2             0.0021    -0.0041     0.0020 C.ar    
   3 C3            -1.1849    -0.7157     0.0100 C.ar    
   4 C4            -2.4055    -0.0329     0.0258 C.ar    
   5 C5            -2.4163     1.3658     0.0334 C.ar    
   6 C6            -1.2211     2.0635     0.0306 C.ar    
   7 C7            -3.6754    -0.7843     0.0339 C.2     
   8 N8            -4.2667    -1.1208    -1.1296 N.am    
   9 F9            -3.5905     2.0338     0.0486 F       
  10 O10           -4.1883    -1.0998     1.0901 O.2     
  11 C11           -5.2336    -3.3639    -1.0072 C.3     
  12 C12           -5.5275    -1.8668    -1.1215 C.3     
  13 C13           -5.4966    -2.1525    -3.6034 C.3     
  14 C14           -6.2896    -1.5943    -2.4200 C.3     
  15 F15           -1.2295     3.4145     0.0379 F       
  16 C16            1.2803     2.1479     0.0014 C.3     
  17 F17            1.1820    -0.6619    -0.0137 F       
  18 F18           -1.1646    -2.0666     0.0021 F       
  19 C19           -7.6598    -2.2724    -2.3590 C.3     
  20 H20           -3.8575    -0.8690    -1.9722 H       
  21 H21           -4.6907    -3.5580    -0.0822 H       
  22 H22           -6.1716    -3.9189    -1.0012 H       
  23 H23           -4.6290    -3.6814    -1.8568 H       
  24 H24           -6.1321    -1.5493    -0.2720 H       
  25 H25           -6.0395    -1.9584    -4.5285 H       
  26 H26           -4.5204    -1.6694    -3.6469 H       
  27 H27           -5.3649    -3.2272    -3.4781 H       
  28 H28           -6.4213    -0.5196    -2.5453 H       
  29 H29            1.5831     2.3384    -1.0282 H       
  30 H30            1.1447     3.0961     0.5216 H       
  31 H31            2.0510     1.5642     0.5047 H       
  32 H32           -7.5281    -3.3471    -2.2336 H       
  33 H33           -8.2247    -1.8748    -1.5159 H       
  34 H34           -8.2027    -2.0783    -3.2841 H       
@<TRIPOS>BOND
   1    1    2 ar
   2    1   16 1
   3    1    6 ar
   4    2    3 ar
   5    2   17 1
   6    3    4 ar
   7    3   18 1
   8    4    5 ar
   9    4    7 1
  10    5    6 ar
  11    5    9 1
  12    6   15 1
  13    7    8 am
  14    7   10 2
  15    8   12 1
  16    8   20 1
  17   11   12 1
  18   11   21 1
  19   11   22 1
  20   11   23 1
  21   12   14 1
  22   12   24 1
  23   13   14 1
  24   13   25 1
  25   13   26 1
  26   13   27 1
  27   14   19 1
  28   14   28 1
  29   16   29 1
  30   16   30 1
  31   16   31 1
  32   19   32 1
  33   19   33 1
  34   19   34 1

#	End of record

