#	Name: ASD04590974
#	Creating user name:	WinNT
#	Creation time:	15. 06. 2019 20:51

#	Modifying user name:	WinNT
#	Modification time:	15. 06. 2019 20:51

#	Program:	/corina/corina34_cracker 3.40 0067  02.08.2006

@<TRIPOS>MOLECULE
ASD04590974
  62   67    0    0    0
SMALL
NO_CHARGES


@<TRIPOS>ATOM
   1 N1            -0.0171     1.3235    -0.0119 N.ar    
   2 C2             0.0017    -0.0035    -0.0051 C.ar    
   3 N3             1.1296    -0.6948    -0.0122 N.ar    
   4 C4             2.3050    -0.0726    -0.0266 C.ar    
   5 C5             2.3190     1.3364    -0.0341 C.ar    
   6 C6             1.1070     2.0203    -0.0261 C.ar    
   7 N7             3.6031    -0.5195    -0.0373 N.pl3   
   8 C8             4.4824     0.5494    -0.0517 C.ar    
   9 C9             3.7312     1.7384    -0.0504 C.ar    
  10 C10            5.8681     0.6417    -0.0666 C.ar    
  11 N11            6.4613     1.8180    -0.0786 N.ar    
  12 C12            5.7850     2.9532    -0.0777 C.ar    
  13 C13            4.4064     2.9584    -0.0635 C.ar    
  14 N14           -1.2019    -0.6887     0.0103 N.pl3   
  15 C15           -2.4019     0.0120     0.1313 C.ar    
  16 N16           -2.3782     1.3200     0.3318 N.ar    
  17 C17           -3.4880     2.0232     0.4517 C.ar    
  18 C18           -4.7291     1.4088     0.3708 C.ar    
  19 C19           -4.7935     0.0326     0.1602 C.ar    
  20 C20           -3.6090    -0.6707     0.0341 C.ar    
  21 N21           -5.9023     2.1617     0.4995 N.3     
  22 C22            4.0016    -1.9292    -0.0333 C.3     
  23 C23           -6.7760     1.9780    -0.6664 C.3     
  24 C24            3.4402    -2.6541    -1.2770 C.3     
  25 C25            3.3547    -2.6711     1.1574 C.3     
  26 C26            2.5207    -3.7482    -0.6906 C.3     
  27 O27            2.1509    -3.2578     0.6166 O.3     
  28 O28            2.6877    -1.7488    -2.0870 O.3     
  29 C29           -5.5955     3.5816     0.7146 C.3     
  30 C30           -6.8901     4.3478     0.9952 C.3     
  31 C31           -7.8410     4.1864    -0.1941 C.3     
  32 C32           -8.1060     2.6964    -0.4271 C.3     
  33 N33           -9.1082     4.8712     0.0940 N.3     
  34 C34           -9.7911     5.2591    -1.1474 C.3     
  35 H35            1.0847     3.1001    -0.0319 H       
  36 H36            6.4645    -0.2586    -0.0679 H       
  37 H37            6.3203     3.8911    -0.0879 H       
  38 H38            3.8597     3.8898    -0.0634 H       
  39 H39           -1.2103    -1.6559    -0.0630 H       
  40 H40           -3.4296     3.0891     0.6151 H       
  41 H41           -5.7459    -0.4722     0.0929 H       
  42 H42           -3.6218    -1.7380    -0.1302 H       
  43 H43            5.0873    -2.0181     0.0030 H       
  44 H44           -6.2932     2.3930    -1.5511 H       
  45 H45           -6.9600     0.9145    -0.8184 H       
  46 H46            4.2483    -3.1034    -1.8543 H       
  47 H47            4.0226    -3.4488     1.5279 H       
  48 H48            3.1097    -1.9688     1.9542 H       
  49 H49            1.6349    -3.8733    -1.3134 H       
  50 H50            3.0606    -4.6910    -0.6035 H       
  51 H51            2.3120    -2.1515    -2.8818 H       
  52 H52           -4.9219     3.6827     1.5656 H       
  53 H53           -5.1181     3.9891    -0.1766 H       
  54 H54           -7.3610     3.9500     1.8941 H       
  55 H55           -6.6638     5.4043     1.1393 H       
  56 H56           -7.3864     4.6192    -1.0853 H       
  57 H57           -8.7483     2.5730    -1.2990 H       
  58 H58           -8.5959     2.2726     0.4495 H       
  59 H59           -9.7055     4.2987     0.6715 H       
  60 H60           -9.1520     5.9325    -1.7186 H       
  61 H61          -10.0019     4.3686    -1.7397 H       
  62 H62          -10.7262     5.7641    -0.9052 H       
@<TRIPOS>BOND
   1    1    2 ar
   2    1    6 ar
   3    2    3 ar
   4    2   14 1
   5    3    4 ar
   6    4    5 ar
   7    4    7 1
   8    5    6 ar
   9    5    9 1
  10    6   35 1
  11    7    8 1
  12    7   22 1
  13    8    9 ar
  14    8   10 ar
  15    9   13 ar
  16   10   11 ar
  17   10   36 1
  18   11   12 ar
  19   12   13 ar
  20   12   37 1
  21   13   38 1
  22   14   15 1
  23   14   39 1
  24   15   16 ar
  25   15   20 ar
  26   16   17 ar
  27   17   18 ar
  28   17   40 1
  29   18   19 ar
  30   18   21 1
  31   19   20 ar
  32   19   41 1
  33   20   42 1
  34   21   29 1
  35   21   23 1
  36   22   24 1
  37   22   25 1
  38   22   43 1
  39   23   32 1
  40   23   44 1
  41   23   45 1
  42   24   26 1
  43   24   28 1
  44   24   46 1
  45   25   27 1
  46   25   47 1
  47   25   48 1
  48   26   27 1
  49   26   49 1
  50   26   50 1
  51   28   51 1
  52   29   30 1
  53   29   52 1
  54   29   53 1
  55   30   31 1
  56   30   54 1
  57   30   55 1
  58   31   32 1
  59   31   33 1
  60   31   56 1
  61   32   57 1
  62   32   58 1
  63   33   34 1
  64   33   59 1
  65   34   60 1
  66   34   61 1
  67   34   62 1

#	End of record

