#	Name: ASD01190136
#	Creating user name:	WinNT
#	Creation time:	15. 06. 2019 19:07

#	Modifying user name:	WinNT
#	Modification time:	15. 06. 2019 19:07

#	Program:	/corina/corina34_cracker 3.40 0067  02.08.2006

@<TRIPOS>MOLECULE
ASD01190136
  60   64    0    0    0
SMALL
NO_CHARGES


@<TRIPOS>ATOM
   1 C1            -3.2068     1.1783     1.2649 C.3     
   2 C2            -2.9311    -0.0250     0.3611 C.3     
   3 C3            -1.7385    -0.8116     0.9089 C.3     
   4 O4            -4.2439     1.9769     0.6915 O.3     
   5 O5            -4.0835    -0.8693     0.3272 O.3     
   6 C6             0.1197    -0.7053    -1.6953 C.ar    
   7 C7            -0.5871    -1.7629    -1.1224 C.ar    
   8 C8            -0.5191    -3.0268    -1.7379 C.ar    
   9 C9             0.2539    -3.1693    -2.8975 C.ar    
  10 C10            0.9120    -2.0790    -3.3875 C.ar    
  11 N11            0.8326    -0.8995    -2.7905 N.ar    
  12 N12           -1.3992    -1.8933    -0.0190 N.pl3   
  13 C13           -1.3444    -3.9175    -0.9277 C.2     
  14 C14           -1.8415    -3.1817     0.0823 C.2     
  15 C15           -1.5923    -5.3831    -1.1759 C.3     
  16 C16           -2.5060    -5.9383    -0.0815 C.3     
  17 O17           -2.2181    -5.5513    -2.4496 O.3     
  18 N18            3.2356    -8.2593    -1.3449 N.pl3   
  19 N19            3.0468    -8.9265    -2.5597 N.2     
  20 C20            1.8972    -8.5974    -3.0773 C.2     
  21 C21            1.2542    -7.6504    -2.1718 C.ar    
  22 C22            0.0359    -6.9623    -2.1889 C.ar    
  23 C23           -0.2804    -6.1244    -1.1590 C.ar    
  24 C24            0.5960    -5.9481    -0.0952 C.ar    
  25 C25            1.7913    -6.6086    -0.0564 C.ar    
  26 C26            2.1410    -7.4702    -1.0925 C.ar    
  27 C27            4.3584    -8.3813    -0.5161 C.ar    
  28 C28            5.0123    -9.6014    -0.4064 C.ar    
  29 C29            6.1190    -9.7196     0.4112 C.ar    
  30 C30            6.5768    -8.6224     1.1214 C.ar    
  31 C31            5.9261    -7.4047     1.0134 C.ar    
  32 C32            4.8225    -7.2808     0.1925 C.ar    
  33 F33            7.6593    -8.7401     1.9210 F       
  34 F34           -3.7240    -5.2502    -0.0973 F       
  35 F35           -2.7362    -7.2989    -0.3120 F       
  36 F36           -1.8934    -5.7737     1.1654 F       
  37 O37            0.0704     0.5271    -1.1295 O.3     
  38 C38            0.8178     1.5645    -1.7678 C.3     
  39 H39           -3.5191     0.8294     2.2492 H       
  40 H40           -2.3000     1.7753     1.3618 H       
  41 H41           -2.7052     0.3221    -0.6472 H       
  42 H42           -0.8830    -0.1450     1.0182 H       
  43 H43           -1.9968    -1.2336     1.8801 H       
  44 H44           -4.4715     2.7591     1.2125 H       
  45 H45           -4.3429    -1.2156     1.1920 H       
  46 H46            0.3280    -4.1253    -3.3946 H       
  47 H47            1.5102    -2.1800    -4.2811 H       
  48 H48           -2.4939    -3.5541     0.8583 H       
  49 H49           -1.6940    -5.2208    -3.1920 H       
  50 H50            1.4924    -8.9605    -4.0104 H       
  51 H51           -0.6502    -7.0934    -3.0125 H       
  52 H52            0.3292    -5.2804     0.7107 H       
  53 H53            2.4637    -6.4624     0.7761 H       
  54 H54            4.6555   -10.4574    -0.9598 H       
  55 H55            6.6277   -10.6684     0.4970 H       
  56 H56            6.2844    -6.5503     1.5683 H       
  57 H57            4.3182    -6.3298     0.1048 H       
  58 H58            1.8732     1.2929    -1.7867 H       
  59 H59            0.4581     1.6961    -2.7883 H       
  60 H60            0.6920     2.4956    -1.2152 H       
@<TRIPOS>BOND
   1    1    2 1
   2    1    4 1
   3    1   39 1
   4    1   40 1
   5    2    3 1
   6    2    5 1
   7    2   41 1
   8    3   12 1
   9    3   42 1
  10    3   43 1
  11    4   44 1
  12    5   45 1
  13    6    7 ar
  14    6   11 ar
  15    6   37 1
  16    7    8 ar
  17    7   12 1
  18    8    9 ar
  19    8   13 1
  20    9   10 ar
  21    9   46 1
  22   10   11 ar
  23   10   47 1
  24   12   14 1
  25   13   14 2
  26   13   15 1
  27   14   48 1
  28   15   16 1
  29   15   17 1
  30   15   23 1
  31   16   34 1
  32   16   35 1
  33   16   36 1
  34   17   49 1
  35   18   19 1
  36   18   26 1
  37   18   27 1
  38   19   20 2
  39   20   21 1
  40   20   50 1
  41   21   22 ar
  42   21   26 ar
  43   22   23 ar
  44   22   51 1
  45   23   24 ar
  46   24   25 ar
  47   24   52 1
  48   25   26 ar
  49   25   53 1
  50   27   28 ar
  51   27   32 ar
  52   28   29 ar
  53   28   54 1
  54   29   30 ar
  55   29   55 1
  56   30   31 ar
  57   30   33 1
  58   31   32 ar
  59   31   56 1
  60   32   57 1
  61   37   38 1
  62   38   58 1
  63   38   59 1
  64   38   60 1

#	End of record

