#	Name: ASD01881043
#	Creating user name:	WinNT
#	Creation time:	15. 06. 2019 19:41

#	Modifying user name:	WinNT
#	Modification time:	15. 06. 2019 19:41

#	Program:	/corina/corina34_cracker 3.40 0067  02.08.2006

@<TRIPOS>MOLECULE
ASD01881043
  44   46    0    0    0
SMALL
NO_CHARGES


@<TRIPOS>ATOM
   1 O1            -0.0177     1.4528     0.0100 O.3     
   2 C2             0.0021    -0.0041     0.0020 C.3     
   3 C3             1.5020    -0.3567    -0.0142 C.3     
   4 N4             2.1700     0.9538    -0.0135 N.am    
   5 C5             1.2374     1.9159     0.0005 C.2     
   6 C6            -0.6652    -0.5565     1.2632 C.3     
   7 O7            -2.0581    -0.2381     1.2435 O.3     
   8 O8             1.5070     3.1008     0.0039 O.2     
   9 C9             3.5539     1.1619    -0.0256 C.ar    
  10 C10            4.0633     2.4537    -0.0236 C.ar    
  11 C11            5.4295     2.6558    -0.0356 C.ar    
  12 C12            6.2899     1.5733    -0.0501 C.ar    
  13 C13            5.7858     0.2857    -0.0527 C.ar    
  14 C14            4.4206     0.0769    -0.0340 C.ar    
  15 C15           -2.8023    -0.6597     2.2996 C.ar    
  16 C16           -4.1614    -0.3853     2.3456 C.ar    
  17 C17           -4.9157    -0.8149     3.4202 C.ar    
  18 C18           -4.3172    -1.5179     4.4494 C.ar    
  19 C19           -2.9628    -1.7924     4.4062 C.ar    
  20 C20           -2.2053    -1.3703     3.3308 C.ar    
  21 C21           -5.1424    -1.9854     5.6205 C.3     
  22 C22           -5.0706    -3.5106     5.7186 C.3     
  23 C23           -4.5972    -1.3653     6.9086 C.3     
  24 H24           -0.4904    -0.3880    -0.8914 H       
  25 H25            1.7715    -0.9243     0.8765 H       
  26 H26            1.7544    -0.9146    -0.9159 H       
  27 H27           -0.5402    -1.6388     1.2960 H       
  28 H28           -0.2029    -0.1105     2.1438 H       
  29 H29            3.3918     3.2996    -0.0129 H       
  30 H30            5.8263     3.6602    -0.0340 H       
  31 H31            7.3578     1.7339    -0.0598 H       
  32 H32            6.4603    -0.5577    -0.0647 H       
  33 H33            4.0275    -0.9290    -0.0360 H       
  34 H34           -4.6293     0.1641     1.5421 H       
  35 H35           -5.9737    -0.6012     3.4566 H       
  36 H36           -2.4974    -2.3410     5.2117 H       
  37 H37           -1.1473    -1.5849     3.2975 H       
  38 H38           -6.1790    -1.6788     5.4801 H       
  39 H39           -4.0341    -3.8173     5.8590 H       
  40 H40           -5.6675    -3.8487     6.5656 H       
  41 H41           -5.4591    -3.9524     4.8009 H       
  42 H42           -4.6483    -0.2788     6.8387 H       
  43 H43           -5.1941    -1.7035     7.7556 H       
  44 H44           -3.5607    -1.6720     7.0490 H       
@<TRIPOS>BOND
   1    1    2 1
   2    1    5 1
   3    2    3 1
   4    2    6 1
   5    2   24 1
   6    3    4 1
   7    3   25 1
   8    3   26 1
   9    4    5 am
  10    4    9 1
  11    5    8 2
  12    6    7 1
  13    6   27 1
  14    6   28 1
  15    7   15 1
  16    9   10 ar
  17    9   14 ar
  18   10   11 ar
  19   10   29 1
  20   11   12 ar
  21   11   30 1
  22   12   13 ar
  23   12   31 1
  24   13   14 ar
  25   13   32 1
  26   14   33 1
  27   15   16 ar
  28   15   20 ar
  29   16   17 ar
  30   16   34 1
  31   17   18 ar
  32   17   35 1
  33   18   19 ar
  34   18   21 1
  35   19   20 ar
  36   19   36 1
  37   20   37 1
  38   21   22 1
  39   21   23 1
  40   21   38 1
  41   22   39 1
  42   22   40 1
  43   22   41 1
  44   23   42 1
  45   23   43 1
  46   23   44 1

#	End of record

