#	Name: ASD02480004
#	Creating user name:	WinNT
#	Creation time:	15. 06. 2019 20:22

#	Modifying user name:	WinNT
#	Modification time:	15. 06. 2019 20:22

#	Program:	/corina/corina34_cracker 3.40 0067  02.08.2006

@<TRIPOS>MOLECULE
ASD02480004
  37   38    0    0    0
SMALL
NO_CHARGES


@<TRIPOS>ATOM
   1 C1             0.5214     3.1907     0.6145 C.ar    
   2 C2             1.0886     3.3206     1.8712 C.ar    
   3 C3             0.3012     3.6391     2.9640 C.ar    
   4 C4            -1.0555     3.8296     2.8090 C.ar    
   5 C5            -1.6365     3.7008     1.5432 C.ar    
   6 C6            -0.8344     3.3844     0.4425 C.ar    
   7 C7            -3.0840     3.9021     1.3699 C.2     
   8 C8            -3.7061     3.7624     0.0044 C.3     
   9 O9            -3.7761     4.1804     2.3259 O.2     
  10 C10           -5.2227     3.9308     0.1153 C.3     
  11 C11           -5.5425     5.3455     0.5247 C.ar    
  12 S12           -5.9892     3.5782    -1.4905 S.3     
  13 C13           -5.7231     1.7946    -1.6869 C.3     
  14 C14           -6.2084     1.3610    -3.0461 C.2     
  15 O15           -6.1112     0.0738    -3.4143 O.3     
  16 O16           -6.6849     2.1719    -3.8045 O.2     
  17 C17           -6.2316     5.5862     1.6986 C.ar    
  18 C18           -6.5250     6.8838     2.0741 C.ar    
  19 C19           -6.1287     7.9407     1.2761 C.ar    
  20 C20           -5.4387     7.7000     0.1027 C.ar    
  21 C21           -5.1416     6.4026    -0.2707 C.ar    
  22 Cl22           1.5189     2.7904    -0.7488 Cl      
  23 H23            2.1507     3.1723     1.9993 H       
  24 H24            0.7507     3.7384     3.9410 H       
  25 H25           -1.6683     4.0773     3.6631 H       
  26 H26           -1.2758     3.2833    -0.5380 H       
  27 H27           -3.3030     4.5280    -0.6585 H       
  28 H28           -3.4786     2.7758    -0.3992 H       
  29 H29           -5.6114     3.2395     0.8630 H       
  30 H30           -4.6599     1.5734    -1.5931 H       
  31 H31           -6.2753     1.2578    -0.9156 H       
  32 H32           -6.4358    -0.1565    -4.2956 H       
  33 H33           -6.5412     4.7605     2.3221 H       
  34 H34           -7.0640     7.0719     2.9909 H       
  35 H35           -6.3585     8.9545     1.5691 H       
  36 H36           -5.1294     8.5257    -0.5210 H       
  37 H37           -4.6025     6.2145    -1.1874 H       
@<TRIPOS>BOND
   1    1    2 ar
   2    1   22 1
   3    1    6 ar
   4    2    3 ar
   5    2   23 1
   6    3    4 ar
   7    3   24 1
   8    4    5 ar
   9    4   25 1
  10    5    6 ar
  11    5    7 1
  12    6   26 1
  13    7    8 1
  14    7    9 2
  15    8   10 1
  16    8   27 1
  17    8   28 1
  18   10   11 1
  19   10   12 1
  20   10   29 1
  21   11   17 ar
  22   11   21 ar
  23   12   13 1
  24   13   14 1
  25   13   30 1
  26   13   31 1
  27   14   15 1
  28   14   16 2
  29   15   32 1
  30   17   18 ar
  31   17   33 1
  32   18   19 ar
  33   18   34 1
  34   19   20 ar
  35   19   35 1
  36   20   21 ar
  37   20   36 1
  38   21   37 1

#	End of record

