#	Name: ASD01940132
#	Creating user name:	WinNT
#	Creation time:	15. 06. 2019 20:11

#	Modifying user name:	WinNT
#	Modification time:	15. 06. 2019 20:11

#	Program:	/corina/corina34_cracker 3.40 0067  02.08.2006

@<TRIPOS>MOLECULE
ASD01940132
  32   32    0    0    0
SMALL
NO_CHARGES


@<TRIPOS>ATOM
   1 C1             0.0051     1.5212    -0.0414 C.3     
   2 C2            -0.9384     1.9430     1.0867 C.3     
   3 C3            -1.0908     0.5665     0.4365 C.3     
   4 S4            -0.2185     2.3103    -1.6594 S.o2    
   5 O5             0.9019     2.0581    -2.4963 O.2     
   6 O6            -1.5444     2.1135    -2.1312 O.2     
   7 O7            -0.1413     3.8022    -1.3683 O.3     
   8 C8             1.4493     1.1837     0.3345 C.3     
   9 C9             2.1763     0.6650    -0.8794 C.2     
  10 C10            3.2958     1.2272    -1.2624 C.2     
  11 C11            1.1844     4.2803    -1.1314 C.3     
  12 C12            1.1305     5.7565    -0.7331 C.3     
  13 C13            2.5499     6.2684    -0.4794 C.3     
  14 C14            2.4960     7.7447    -0.0811 C.3     
  15 H15           -0.5302     1.9801     2.0968 H       
  16 H16           -1.6935     2.6947     0.8567 H       
  17 H17           -1.9462     0.4125    -0.2214 H       
  18 H18           -0.7830    -0.3021     1.0187 H       
  19 H19            1.9484     2.0806     0.7012 H       
  20 H20            1.4533     0.4214     1.1136 H       
  21 H21            1.7743    -0.1703    -1.4336 H       
  22 H22            3.6978     2.0625    -0.7082 H       
  23 H23            3.8167     0.8555    -2.1323 H       
  24 H24            1.6404     3.7033    -0.3269 H       
  25 H25            1.7779     4.1702    -2.0390 H       
  26 H26            0.6745     6.3335    -1.5376 H       
  27 H27            0.5370     5.8666     0.1745 H       
  28 H28            3.0059     5.6914     0.3251 H       
  29 H29            3.1434     6.1584    -1.3870 H       
  30 H30            3.5072     8.1093     0.0996 H       
  31 H31            2.0401     8.3217    -0.8856 H       
  32 H32            1.9025     7.8547     0.8265 H       
@<TRIPOS>BOND
   1    1    2 1
   2    1    3 1
   3    1    4 1
   4    1    8 1
   5    2    3 1
   6    2   15 1
   7    2   16 1
   8    3   17 1
   9    3   18 1
  10    4    5 2
  11    4    6 2
  12    4    7 1
  13    7   11 1
  14    8    9 1
  15    8   19 1
  16    8   20 1
  17    9   10 2
  18    9   21 1
  19   10   22 1
  20   10   23 1
  21   11   12 1
  22   11   24 1
  23   11   25 1
  24   12   13 1
  25   12   26 1
  26   12   27 1
  27   13   14 1
  28   13   28 1
  29   13   29 1
  30   14   30 1
  31   14   31 1
  32   14   32 1

#	End of record

