#	Name: ASD01812243
#	Creating user name:	WinNT
#	Creation time:	15. 06. 2019 19:28

#	Modifying user name:	WinNT
#	Modification time:	15. 06. 2019 19:28

#	Program:	/corina/corina34_cracker 3.40 0067  02.08.2006

@<TRIPOS>MOLECULE
ASD01812243
  57   61    0    0    0
SMALL
NO_CHARGES


@<TRIPOS>ATOM
   1 N1             0.2154     1.6899    -0.6071 N.am    
   2 C2             0.0894     0.2636    -0.2865 C.3     
   3 C3             1.4958    -0.2689    -0.1710 C.ar    
   4 C4             2.3482     0.8100    -0.4157 C.ar    
   5 C5             1.5207     2.0024    -0.6810 C.2     
   6 C6             4.2384    -0.6374    -0.0961 C.ar    
   7 C7             3.7300     0.6141    -0.3756 C.ar    
   8 C8             5.7300    -0.8480    -0.0526 C.3     
   9 C9             6.4288     0.4817    -0.1727 C.ar    
  10 C10            6.6805     1.2338     0.9601 C.ar    
  11 C11            7.3208     2.4529     0.8532 C.ar    
  12 C12            7.7118     2.9231    -0.3933 C.ar    
  13 C13            7.4578     2.1657    -1.5288 C.ar    
  14 C14            6.8221     0.9447    -1.4149 C.ar    
  15 O15            1.9570     3.1091    -0.9311 O.2     
  16 C16            2.0131    -1.5144     0.1067 C.ar    
  17 C17            3.3859    -1.7004     0.1441 C.ar    
  18 C18            3.9516    -3.0636     0.4482 C.3     
  19 C19           -0.8977     2.6187    -0.8181 C.3     
  20 N20            8.3615     4.1602    -0.5051 N.pl3   
  21 N21            8.6843     5.0205     0.5524 N.2     
  22 C22            8.7928     4.7319    -1.6522 C.2     
  23 C23            9.3637     5.9164    -1.3326 C.2     
  24 C24            9.2826     6.0731     0.0555 C.2     
  25 O25           -0.8880     2.1452    -3.1879 O.3     
  26 C26           -1.8975     5.3050    -1.4241 C.3     
  27 C27           -1.9811     4.7210    -0.0125 C.3     
  28 C28           -0.8186     3.7510     0.2078 C.3     
  29 C29           -0.8141     3.2027    -2.2297 C.3     
  30 C30           -1.9766     4.1727    -2.4501 C.3     
  31 Cl31           0.9467    -2.8503     0.4103 Cl      
  32 F32            3.0233    -4.0453     0.0852 F       
  33 F33            5.1342    -3.2498    -0.2757 F       
  34 F34            4.2225    -3.1614     1.8172 F       
  35 H35           -0.4377     0.1373     0.6591 H       
  36 H36           -0.4427    -0.2541    -1.0846 H       
  37 H37            4.3994     1.4406    -0.5635 H       
  38 H38            6.0031    -1.3180     0.8922 H       
  39 H39            6.0302    -1.4923    -0.8790 H       
  40 H40            6.3758     0.8676     1.9294 H       
  41 H41            7.5168     3.0400     1.7382 H       
  42 H42            7.7604     2.5290    -2.4998 H       
  43 H43            6.6284     0.3530    -2.2973 H       
  44 H44           -1.8419     2.0870    -0.7002 H       
  45 H45            8.6988     4.3173    -2.6450 H       
  46 H46            9.8065     6.6159    -2.0261 H       
  47 H47            9.6526     6.9162     0.6199 H       
  48 H48           -0.8410     2.4429    -4.1068 H       
  49 H49           -2.7257     5.9961    -1.5811 H       
  50 H50           -0.9533     5.8368    -1.5420 H       
  51 H51           -1.9247     5.5277     0.7184 H       
  52 H52           -2.9253     4.1893     0.1054 H       
  53 H53           -0.8782     3.3349     1.2135 H       
  54 H54            0.1256     4.2827     0.0900 H       
  55 H55            0.1301     3.7344    -2.3476 H       
  56 H56           -2.9208     3.6410    -2.3322 H       
  57 H57           -1.9170     4.5888    -3.4557 H       
@<TRIPOS>BOND
   1    1    2 1
   2    1    5 am
   3    1   19 1
   4    2    3 1
   5    2   35 1
   6    2   36 1
   7    3    4 ar
   8    3   16 ar
   9    4    5 1
  10    4    7 ar
  11    5   15 2
  12    6    8 1
  13    6    7 ar
  14    6   17 ar
  15    7   37 1
  16    8    9 1
  17    8   38 1
  18    8   39 1
  19    9   10 ar
  20    9   14 ar
  21   10   11 ar
  22   10   40 1
  23   11   12 ar
  24   11   41 1
  25   12   13 ar
  26   12   20 1
  27   13   14 ar
  28   13   42 1
  29   14   43 1
  30   16   17 ar
  31   16   31 1
  32   17   18 1
  33   18   32 1
  34   18   33 1
  35   18   34 1
  36   19   29 1
  37   19   28 1
  38   19   44 1
  39   20   22 1
  40   20   21 1
  41   21   24 2
  42   22   23 2
  43   22   45 1
  44   23   24 1
  45   23   46 1
  46   24   47 1
  47   25   29 1
  48   25   48 1
  49   26   27 1
  50   26   30 1
  51   26   49 1
  52   26   50 1
  53   27   28 1
  54   27   51 1
  55   27   52 1
  56   28   53 1
  57   28   54 1
  58   29   30 1
  59   29   55 1
  60   30   56 1
  61   30   57 1

#	End of record

