#	Name: ASD01816103
#	Creating user name:	WinNT
#	Creation time:	15. 06. 2019 19:34

#	Modifying user name:	WinNT
#	Modification time:	15. 06. 2019 19:34

#	Program:	/corina/corina34_cracker 3.40 0067  02.08.2006

@<TRIPOS>MOLECULE
ASD01816103
  53   58    0    0    0
SMALL
NO_CHARGES


@<TRIPOS>ATOM
   1 C1             0.0093     1.3253     0.0734 C.ar    
   2 C2             0.0203    -0.0600     0.0496 C.ar    
   3 C3             1.2128    -0.7533     0.0280 C.ar    
   4 C4             2.4198    -0.0632     0.0299 C.ar    
   5 C5             2.4052     1.3414     0.0536 C.ar    
   6 C6             1.1963     2.0290     0.0753 C.ar    
   7 N7             3.6198    -0.7529     0.0092 N.pl3   
   8 C8             4.8150    -0.1409     0.0104 C.2     
   9 C9             4.9256     1.2272     0.0325 C.2     
  10 C10            3.6972     2.0537     0.0552 C.2     
  11 C11            6.0281     2.1836     0.0406 C.2     
  12 N12            5.4624     3.4097     0.0652 N.am    
  13 N13            4.0695     3.3013     0.0734 N.2     
  14 O14            7.2210     1.9270     0.0284 O.2     
  15 C15            3.5842    -2.2173    -0.0145 C.3     
  16 C16            3.5609    -2.6961    -1.4432 C.ar    
  17 C17            4.7434    -2.9465    -2.1143 C.ar    
  18 N18            4.7371    -3.3659    -3.3633 N.ar    
  19 C19            3.6030    -3.5640    -4.0249 C.ar    
  20 C20            2.3733    -3.3305    -3.4086 C.ar    
  21 C21            2.3518    -2.8951    -2.0956 C.ar    
  22 C22            6.1711     4.6178     0.0805 C.ar    
  23 C23            5.9354     5.5516     1.0838 C.ar    
  24 C24            7.1147     4.8836    -0.9027 C.ar    
  25 C25            7.8120     6.0758    -0.8852 C.ar    
  26 C26            7.5720     7.0054     0.1102 C.ar    
  27 C27            6.6375     6.7432     1.0950 C.ar    
  28 F28            5.0219     5.2954     2.0457 F       
  29 C29            3.6436    -4.0355    -5.4261 C.2     
  30 N30            4.3505    -4.6593    -7.4496 N.2     
  31 C31            3.0459    -4.7679    -7.4479 C.2     
  32 C32            2.5688    -4.3829    -6.1953 C.2     
  33 N33            4.7600    -4.1984    -6.1918 N.pl3   
  34 C34            6.1399    -3.9382    -5.7741 C.3     
  35 H35           -0.9312     1.8560     0.0860 H       
  36 H36           -0.9136    -0.6023     0.0483 H       
  37 H37            1.2087    -1.8331     0.0099 H       
  38 H38            1.1867     3.1088     0.0934 H       
  39 H39            5.7129    -0.7408    -0.0061 H       
  40 H40            4.4691    -2.6104     0.4861 H       
  41 H41            2.6897    -2.5674     0.5006 H       
  42 H42            5.6853    -2.7960    -1.6078 H       
  43 H43            1.4512    -3.4915    -3.9474 H       
  44 H44            1.4152    -2.7060    -1.5921 H       
  45 H45            7.3035     4.1585    -1.6806 H       
  46 H46            8.5462     6.2822    -1.6499 H       
  47 H47            8.1193     7.9364     0.1211 H       
  48 H48            6.4524     7.4713     1.8709 H       
  49 H49            2.4401    -5.0998    -8.2782 H       
  50 H50            1.5337    -4.3629    -5.8877 H       
  51 H51            6.5320    -4.8108    -5.2516 H       
  52 H52            6.7529    -3.7345    -6.6520 H       
  53 H53            6.1613    -3.0758    -5.1078 H       
@<TRIPOS>BOND
   1    1    2 ar
   2    1    6 ar
   3    1   35 1
   4    2    3 ar
   5    2   36 1
   6    3    4 ar
   7    3   37 1
   8    4    5 ar
   9    4    7 1
  10    5    6 ar
  11    5   10 1
  12    6   38 1
  13    7    8 1
  14    7   15 1
  15    8    9 2
  16    8   39 1
  17    9   10 1
  18    9   11 1
  19   10   13 2
  20   11   12 am
  21   11   14 2
  22   12   13 1
  23   12   22 1
  24   15   16 1
  25   15   40 1
  26   15   41 1
  27   16   17 ar
  28   16   21 ar
  29   17   18 ar
  30   17   42 1
  31   18   19 ar
  32   19   20 ar
  33   19   29 1
  34   20   21 ar
  35   20   43 1
  36   21   44 1
  37   22   23 ar
  38   22   24 ar
  39   23   28 1
  40   23   27 ar
  41   24   25 ar
  42   24   45 1
  43   25   26 ar
  44   25   46 1
  45   26   27 ar
  46   26   47 1
  47   27   48 1
  48   29   33 1
  49   29   32 2
  50   30   31 2
  51   30   33 1
  52   31   32 1
  53   31   49 1
  54   32   50 1
  55   33   34 1
  56   34   51 1
  57   34   52 1
  58   34   53 1

#	End of record

