#	Name: ASD03930097
#	Creating user name:	WinNT
#	Creation time:	15. 06. 2019 20:47

#	Modifying user name:	WinNT
#	Modification time:	15. 06. 2019 20:47

#	Program:	/corina/corina34_cracker 3.40 0067  02.08.2006

@<TRIPOS>MOLECULE
ASD03930097
  23   24    0    0    0
SMALL
NO_CHARGES


@<TRIPOS>ATOM
   1 F1             0.0021    -0.0041     0.0020 F       
   2 C2            -0.0169     1.3948     0.0097 C.3     
   3 F3             1.2956     1.8790    -0.0002 F       
   4 F4            -0.6935     1.8582    -1.1237 F       
   5 C5            -0.7330     1.8882     1.2685 C.3     
   6 N6            -2.0982     1.3686     1.2912 N.pl3   
   7 C7            -2.4023     0.0254     1.4954 C.ar    
   8 C8            -3.6340    -0.4588     1.0583 C.ar    
   9 C9            -3.9718    -1.7808     1.2607 C.ar    
  10 C10           -3.0925    -2.6351     1.9002 C.ar    
  11 C11           -1.8652    -2.1636     2.3315 C.ar    
  12 C12           -1.5207    -0.8450     2.1229 C.ar    
  13 S13            0.0640    -0.2567     2.6397 S.o2    
  14 O14            0.1648    -0.5194     4.0325 O.2     
  15 O15            1.0063    -0.7224     1.6835 O.2     
  16 N16           -0.0209     1.4005     2.4670 N.am    
  17 H17           -0.7540     2.9780     1.2738 H       
  18 H18           -2.8299     1.9911     1.1575 H       
  19 H19           -4.3265     0.2034     0.5598 H       
  20 H20           -4.9273    -2.1501     0.9186 H       
  21 H21           -3.3631    -3.6678     2.0629 H       
  22 H22           -1.1771    -2.8287     2.8321 H       
  23 H23            0.3732     2.0063     3.1140 H       
@<TRIPOS>BOND
   1    1    2 1
   2    2    3 1
   3    2    4 1
   4    2    5 1
   5    5   16 1
   6    5    6 1
   7    5   17 1
   8    6    7 1
   9    6   18 1
  10    7   12 ar
  11    7    8 ar
  12    8    9 ar
  13    8   19 1
  14    9   10 ar
  15    9   20 1
  16   10   11 ar
  17   10   21 1
  18   11   12 ar
  19   11   22 1
  20   12   13 1
  21   13   14 2
  22   13   15 2
  23   13   16 am
  24   16   23 1

#	End of record

