#	Name: ASD01410482
#	Creating user name:	WinNT
#	Creation time:	15. 06. 2019 19:17

#	Modifying user name:	WinNT
#	Modification time:	15. 06. 2019 19:17

#	Program:	/corina/corina34_cracker 3.40 0067  02.08.2006

@<TRIPOS>MOLECULE
ASD01410482
  86   89    0    0    0
SMALL
NO_CHARGES


@<TRIPOS>ATOM
   1 C1             3.5270     4.8950    -3.4556 C.ar    
   2 C2             3.9993     4.1265    -4.5104 C.ar    
   3 C3             4.9246     3.1322    -4.2607 C.ar    
   4 N4             5.3614     2.9069    -3.0364 N.ar    
   5 C5             4.9350     3.6180    -2.0055 C.ar    
   6 C6             4.0046     4.6340    -2.1830 C.ar    
   7 O7             5.4106     3.3521    -0.7631 O.3     
   8 C8             6.2401     2.2848    -0.6119 C.ar    
   9 C9             7.5911     2.4055    -0.9276 C.ar    
  10 C10            8.4421     1.3262    -0.7771 C.ar    
  11 C11            7.9538     0.1147    -0.3105 C.ar    
  12 C12            6.5928    -0.0123     0.0092 C.ar    
  13 C13            5.7410     1.0863    -0.1403 C.ar    
  14 F14            8.0724     3.5827    -1.3834 F       
  15 N15            8.8119    -0.9735    -0.1598 N.am    
  16 C16            9.4790    -1.1504     0.9979 C.2     
  17 C17            8.9886    -1.9248    -1.2598 C.3     
  18 O18           10.2731    -2.0606     1.1072 O.2     
  19 C19            9.2382    -0.2174     2.1565 C.3     
  20 C20           10.4399    -0.2583     3.1026 C.3     
  21 C21           10.6284    -1.6835     3.6262 C.3     
  22 C22            9.3707    -2.1204     4.3800 C.3     
  23 C23            8.1690    -2.0795     3.4339 C.3     
  24 C24            7.9805    -0.6542     2.9103 C.3     
  25 C25            7.9524    -1.6426    -2.3495 C.3     
  26 C26           10.3953    -1.7752    -1.8425 C.3     
  27 C27            3.5074     4.3742    -5.9132 C.3     
  28 O28           11.3596    -2.1846    -0.8706 O.3     
  29 C29           12.7134    -2.0834    -1.3167 C.3     
  30 C30            9.5591    -3.5456     4.9036 C.3     
  31 O31            6.6444    -1.9237    -1.8474 O.3     
  32 C32            4.4112     5.4023    -6.5965 C.3     
  33 C33            5.6089    -1.8067    -2.8252 C.3     
  34 C34            3.9193     5.6500    -7.9993 C.ar    
  35 C35            3.6314     6.9394    -8.4043 C.ar    
  36 C36            3.1794     7.1565    -9.6972 C.ar    
  37 C37            3.0334     6.0635   -10.5374 C.ar    
  38 C38            3.3411     4.8026   -10.0619 C.ar    
  39 N39            3.7737     4.6342    -8.8277 N.ar    
  40 C40            3.1857     3.6072   -10.9663 C.3     
  41 C41            6.0660    -1.2948     0.5054 C.2     
  42 O42            6.8189    -2.2312     0.6877 O.2     
  43 O43            4.7489    -1.4301     0.7572 O.3     
  44 C44            3.5221     5.4418    -1.0058 C.3     
  45 F45            2.5963     6.3953    -1.4425 F       
  46 F46            2.9133     4.5925    -0.0756 F       
  47 F47            4.6089     6.0874    -0.4063 F       
  48 H48            2.8065     5.6816    -3.6246 H       
  49 H49            5.2951     2.5312    -5.0780 H       
  50 H50            9.4887     1.4266    -1.0238 H       
  51 H51            4.6929     0.9953     0.1038 H       
  52 H52            8.8560    -2.9404    -0.8867 H       
  53 H53            9.1039     0.7980     1.7835 H       
  54 H54           11.3359     0.0529     2.5656 H       
  55 H55           10.2657     0.4166     3.9406 H       
  56 H56           10.8025    -2.3584     2.7882 H       
  57 H57           11.4845    -1.7127     4.3003 H       
  58 H58            9.1965    -1.4455     5.2180 H       
  59 H59            8.3431    -2.7543     2.5959 H       
  60 H60            7.2729    -2.3907     3.9709 H       
  61 H61            7.8063     0.0206     3.7483 H       
  62 H62            7.1244    -0.6250     2.2362 H       
  63 H63            8.0111    -0.5948    -2.6441 H       
  64 H64            8.1532    -2.2749    -3.2143 H       
  65 H65           10.4884    -2.3986    -2.7318 H       
  66 H66           10.5688    -0.7328    -2.1098 H       
  67 H67            3.5287     3.4409    -6.4758 H       
  68 H68            2.4864     4.7543    -5.8784 H       
  69 H69           12.8546    -2.7132    -2.1950 H       
  70 H70           12.9350    -1.0474    -1.5730 H       
  71 H71           13.3832    -2.4124    -0.5222 H       
  72 H72           10.4152    -3.5748     5.5776 H       
  73 H73            8.6631    -3.8569     5.4406 H       
  74 H74            9.7333    -4.2205     4.0656 H       
  75 H75            4.3900     6.3357    -6.0339 H       
  76 H76            5.4323     5.0223    -6.6313 H       
  77 H77            5.5332    -0.7696    -3.1520 H       
  78 H78            5.8432    -2.4409    -3.6801 H       
  79 H79            4.6604    -2.1205    -2.3892 H       
  80 H80            3.7566     7.7675    -7.7225 H       
  81 H81            2.9463     8.1533   -10.0412 H       
  82 H82            2.6833     6.1955   -11.5505 H       
  83 H83            4.1179     3.4350   -11.5042 H       
  84 H84            2.9434     2.7285   -10.3686 H       
  85 H85            2.3833     3.7935   -11.6801 H       
  86 H86            4.4501    -2.2907     1.0815 H       
@<TRIPOS>BOND
   1    1    2 ar
   2    1    6 ar
   3    1   48 1
   4    2    3 ar
   5    2   27 1
   6    3    4 ar
   7    3   49 1
   8    4    5 ar
   9    5    6 ar
  10    5    7 1
  11    6   44 1
  12    7    8 1
  13    8    9 ar
  14    8   13 ar
  15    9   10 ar
  16    9   14 1
  17   10   11 ar
  18   10   50 1
  19   11   12 ar
  20   11   15 1
  21   12   13 ar
  22   12   41 1
  23   13   51 1
  24   15   16 am
  25   15   17 1
  26   16   18 2
  27   16   19 1
  28   17   25 1
  29   17   26 1
  30   17   52 1
  31   19   20 1
  32   19   24 1
  33   19   53 1
  34   20   21 1
  35   20   54 1
  36   20   55 1
  37   21   22 1
  38   21   56 1
  39   21   57 1
  40   22   23 1
  41   22   30 1
  42   22   58 1
  43   23   24 1
  44   23   59 1
  45   23   60 1
  46   24   61 1
  47   24   62 1
  48   25   31 1
  49   25   63 1
  50   25   64 1
  51   26   28 1
  52   26   65 1
  53   26   66 1
  54   27   32 1
  55   27   67 1
  56   27   68 1
  57   28   29 1
  58   29   69 1
  59   29   70 1
  60   29   71 1
  61   30   72 1
  62   30   73 1
  63   30   74 1
  64   31   33 1
  65   32   34 1
  66   32   75 1
  67   32   76 1
  68   33   77 1
  69   33   78 1
  70   33   79 1
  71   34   35 ar
  72   34   39 ar
  73   35   36 ar
  74   35   80 1
  75   36   37 ar
  76   36   81 1
  77   37   38 ar
  78   37   82 1
  79   38   39 ar
  80   38   40 1
  81   40   83 1
  82   40   84 1
  83   40   85 1
  84   41   42 2
  85   41   43 1
  86   43   86 1
  87   44   45 1
  88   44   46 1
  89   44   47 1

#	End of record

