#	Name: ASD03240561
#	Creating user name:	WinNT
#	Creation time:	15. 06. 2019 20:35

#	Modifying user name:	WinNT
#	Modification time:	15. 06. 2019 20:35

#	Program:	/corina/corina34_cracker 3.40 0067  02.08.2006

@<TRIPOS>MOLECULE
ASD03240561
  74   81    0    0    0
SMALL
NO_CHARGES


@<TRIPOS>ATOM
   1 C1            -0.0166     1.3755     0.0096 C.ar    
   2 C2             0.0021    -0.0041     0.0020 C.ar    
   3 N3             1.1422    -0.6683    -0.0058 N.ar    
   4 C4             2.3145    -0.0481    -0.0058 C.ar    
   5 C5             2.3702     1.3442    -0.0124 C.ar    
   6 C6             1.1860     2.0698     0.0019 C.ar    
   7 N7             3.4820    -0.8058     0.0220 N.pl3   
   8 C8             4.3591    -0.7194     1.0997 C.ar    
   9 C9             4.9952     0.4889     1.4037 C.ar    
  10 C10            4.7637     1.6835     0.5620 C.2     
  11 N11            3.5939     2.0276    -0.0512 N.pl3   
  12 C12            4.6050    -1.8391     1.8830 C.ar    
  13 C13            5.4652    -1.7539     2.9611 C.ar    
  14 C14            6.0862    -0.5559     3.2699 C.ar    
  15 C15            5.8561     0.5652     2.4982 C.ar    
  16 N16            5.6753     2.5939     0.2851 N.2     
  17 C17            5.1451     3.5400    -0.5057 C.2     
  18 C18            3.8222     3.2038    -0.7368 C.2     
  19 C19            2.8493     3.9537    -1.5543 C.ar    
  20 C20            2.7501     5.3418    -1.4299 C.ar    
  21 C21            2.0269     3.2798    -2.4607 C.ar    
  22 C22            1.1202     3.9874    -3.2219 C.ar    
  23 C23            1.0238     5.3615    -3.0895 C.ar    
  24 C24            1.8388     6.0363    -2.1976 C.ar    
  25 C25            5.8487     4.7301    -1.0351 C.ar    
  26 C26            0.0305     6.1275    -3.9248 C.3     
  27 N27           -1.0483     5.2793    -4.4489 N.3     
  28 C28           -0.4705     7.4186    -3.2564 C.3     
  29 C29           -0.3838     8.0770    -4.6435 C.3     
  30 C30            0.6832     7.0230    -4.9911 C.3     
  31 C31            6.8184     5.3697    -0.2611 C.ar    
  32 C32            7.4725     6.4766    -0.7540 C.ar    
  33 C33            7.1658     6.9592    -2.0264 C.ar    
  34 C34            6.1965     6.3207    -2.8001 C.ar    
  35 C35            5.5466     5.2097    -2.3108 C.ar    
  36 C36            7.8700     8.1514    -2.5564 C.ar    
  37 C37            7.5649     8.6352    -3.8280 C.ar    
  38 C38            8.8348     8.7946    -1.7820 C.ar    
  39 C39            9.4876     9.9035    -2.2777 C.ar    
  40 C40            9.1852    10.3796    -3.5464 C.ar    
  41 C41            8.2213     9.7445    -4.3179 C.ar    
  42 O42            9.8299    11.4728    -4.0317 O.3     
  43 C43            9.4699    11.9088    -5.3441 C.3     
  44 H44           -0.9556     1.9091     0.0170 H       
  45 H45           -0.9306    -0.5486     0.0028 H       
  46 H46            1.2002     3.1497     0.0064 H       
  47 H47            3.6863    -1.4002    -0.7168 H       
  48 H48            4.1240    -2.7774     1.6493 H       
  49 H49            5.6539    -2.6277     3.5671 H       
  50 H50            6.7531    -0.4982     4.1174 H       
  51 H51            6.3417     1.4988     2.7412 H       
  52 H52            3.3853     5.8696    -0.7339 H       
  53 H53            2.1013     2.2074    -2.5653 H       
  54 H54            0.4840     3.4678    -3.9232 H       
  55 H55            1.7579     7.1087    -2.0992 H       
  56 H56           -0.6754     4.4572    -4.8997 H       
  57 H57           -1.6978     5.0280    -3.7187 H       
  58 H58           -1.4874     7.3446    -2.8710 H       
  59 H59            0.2289     7.8346    -2.5312 H       
  60 H60           -1.2975     7.9813    -5.2301 H       
  61 H61            0.0002     9.0969    -4.6195 H       
  62 H62            1.6985     7.3303    -4.7403 H       
  63 H63            0.5965     6.6317    -6.0047 H       
  64 H64            7.0554     4.9966     0.7243 H       
  65 H65            8.2228     6.9715    -0.1552 H       
  66 H66            5.9592     6.6949    -3.7850 H       
  67 H67            4.7961     4.7154    -2.9099 H       
  68 H68            6.8154     8.1414    -4.4288 H       
  69 H69            9.0702     8.4250    -0.7950 H       
  70 H70           10.2347    10.4024    -1.6782 H       
  71 H71            7.9885    10.1171    -5.3045 H       
  72 H72           10.0575    12.7878    -5.6089 H       
  73 H73            9.6679    11.1104    -6.0593 H       
  74 H74            8.4096    12.1607    -5.3652 H       
@<TRIPOS>BOND
   1    1    2 ar
   2    1    6 ar
   3    1   44 1
   4    2    3 ar
   5    2   45 1
   6    3    4 ar
   7    4    5 ar
   8    4    7 1
   9    5    6 ar
  10    5   11 1
  11    6   46 1
  12    7    8 1
  13    7   47 1
  14    8    9 ar
  15    8   12 ar
  16    9   10 1
  17    9   15 ar
  18   10   11 1
  19   10   16 2
  20   11   18 1
  21   12   13 ar
  22   12   48 1
  23   13   14 ar
  24   13   49 1
  25   14   15 ar
  26   14   50 1
  27   15   51 1
  28   16   17 1
  29   17   18 2
  30   17   25 1
  31   18   19 1
  32   19   20 ar
  33   19   21 ar
  34   20   24 ar
  35   20   52 1
  36   21   22 ar
  37   21   53 1
  38   22   23 ar
  39   22   54 1
  40   23   24 ar
  41   23   26 1
  42   24   55 1
  43   25   31 ar
  44   25   35 ar
  45   26   27 1
  46   26   28 1
  47   26   30 1
  48   27   56 1
  49   27   57 1
  50   28   29 1
  51   28   58 1
  52   28   59 1
  53   29   30 1
  54   29   60 1
  55   29   61 1
  56   30   62 1
  57   30   63 1
  58   31   32 ar
  59   31   64 1
  60   32   33 ar
  61   32   65 1
  62   33   34 ar
  63   33   36 1
  64   34   35 ar
  65   34   66 1
  66   35   67 1
  67   36   37 ar
  68   36   38 ar
  69   37   41 ar
  70   37   68 1
  71   38   39 ar
  72   38   69 1
  73   39   40 ar
  74   39   70 1
  75   40   41 ar
  76   40   42 1
  77   41   71 1
  78   42   43 1
  79   43   72 1
  80   43   73 1
  81   43   74 1

#	End of record

