#	Name: ASD01940160
#	Creating user name:	WinNT
#	Creation time:	15. 06. 2019 20:11

#	Modifying user name:	WinNT
#	Modification time:	15. 06. 2019 20:11

#	Program:	/corina/corina34_cracker 3.40 0067  02.08.2006

@<TRIPOS>MOLECULE
ASD01940160
  40   42    0    0    0
SMALL
NO_CHARGES


@<TRIPOS>ATOM
   1 Br1            2.7878    -4.3907    -1.5811 Br      
   2 F2             1.9022     1.6000     2.2850 F       
   3 C3             1.0632     2.1515     1.3811 C.ar    
   4 C4             1.3876     2.1345     0.0311 C.ar    
   5 C5             0.5188     2.7048    -0.8979 C.ar    
   6 C6            -0.6652     3.2865    -0.4699 C.ar    
   7 C7            -0.9831     3.3005     0.8757 C.ar    
   8 C8            -0.1246     2.7296     1.7997 C.ar    
   9 N9             2.5857     1.5457    -0.3964 N.pl3   
  10 N10            0.8413     2.6909    -2.2615 N.am    
  11 C11            2.6327     0.1758    -0.6697 C.ar    
  12 C12            1.4776    -0.5904    -0.5861 C.ar    
  13 C13            1.5269    -1.9441    -0.8573 C.ar    
  14 C14            2.7253    -2.5372    -1.2115 C.ar    
  15 C15            3.8789    -1.7771    -1.2955 C.ar    
  16 C16            3.8351    -0.4217    -1.0316 C.ar    
  17 Cl17           5.2821     0.5315    -1.1370 Cl      
  18 F18           -0.4427     2.7412     3.1127 F       
  19 S19            0.4244     3.9722    -3.2241 S.o2    
  20 O20            0.9897     3.6585    -4.4895 O.2     
  21 O21           -0.9820     4.0914    -3.0592 O.2     
  22 C22           -0.3299     7.0872    -3.0255 C.3     
  23 C23           -0.5263     8.5976    -3.1701 C.3     
  24 C24           -1.0717     7.6493    -4.2398 C.3     
  25 C25            1.2749     5.3919    -2.4813 C.3     
  26 O26            0.9852     6.5696    -3.2372 O.3     
  27 H27           -1.3393     3.7292    -1.1882 H       
  28 H28           -1.9057     3.7542     1.2064 H       
  29 H29            3.3823     2.0891    -0.5025 H       
  30 H30            1.3088     1.9307    -2.6415 H       
  31 H31            0.5415    -0.1285    -0.3090 H       
  32 H32            0.6286    -2.5402    -0.7923 H       
  33 H33            4.8131    -2.2431    -1.5719 H       
  34 H34           -0.9211     6.5730    -2.2678 H       
  35 H35           -1.2471     9.0771    -2.5078 H       
  36 H36            0.3475     9.1965    -3.4267 H       
  37 H37           -0.5567     7.6244    -5.2001 H       
  38 H38           -2.1513     7.5050    -4.2812 H       
  39 H39            0.9317     5.5251    -1.4554 H       
  40 H40            2.3502     5.2136    -2.4845 H       
@<TRIPOS>BOND
   1    1   14 1
   2    2    3 1
   3    3    4 ar
   4    3    8 ar
   5    4    5 ar
   6    4    9 1
   7    5    6 ar
   8    5   10 1
   9    6    7 ar
  10    6   27 1
  11    7    8 ar
  12    7   28 1
  13    8   18 1
  14    9   11 1
  15    9   29 1
  16   10   19 am
  17   10   30 1
  18   11   12 ar
  19   11   16 ar
  20   12   13 ar
  21   12   31 1
  22   13   14 ar
  23   13   32 1
  24   14   15 ar
  25   15   16 ar
  26   15   33 1
  27   16   17 1
  28   19   20 2
  29   19   21 2
  30   19   25 1
  31   22   23 1
  32   22   26 1
  33   22   24 1
  34   22   34 1
  35   23   24 1
  36   23   35 1
  37   23   36 1
  38   24   37 1
  39   24   38 1
  40   25   26 1
  41   25   39 1
  42   25   40 1

#	End of record

