#	Name: ASD01880179
#	Creating user name:	WinNT
#	Creation time:	15. 06. 2019 19:40

#	Modifying user name:	WinNT
#	Modification time:	15. 06. 2019 19:40

#	Program:	/corina/corina34_cracker 3.40 0067  02.08.2006

@<TRIPOS>MOLECULE
ASD01880179
  67   70    0    0    0
SMALL
NO_CHARGES


@<TRIPOS>ATOM
   1 C1            -0.0166     1.3765     0.0096 C.ar    
   2 C2             0.0021    -0.0041     0.0020 C.ar    
   3 C3            -1.1907    -0.7221     0.0090 C.ar    
   4 C4            -2.4029    -0.0685     0.0241 C.ar    
   5 C5            -2.4432     1.3214     0.0324 C.ar    
   6 C6            -1.2399     2.0497     0.0307 C.ar    
   7 O7             1.1904    -0.6651    -0.0128 O.3     
   8 C8             1.1383    -2.0932    -0.0200 C.3     
   9 C9             5.9731    -4.8696     2.2467 C.ar    
  10 C10            6.4773    -5.0709     3.5250 C.ar    
  11 C11            7.7475    -5.5787     3.6946 C.ar    
  12 C12            8.5268    -5.8910     2.5800 C.ar    
  13 C13            8.0167    -5.6879     1.2970 C.ar    
  14 C14            6.7459    -5.1793     1.1350 C.ar    
  15 C15            9.8907    -6.4357     2.7579 C.2     
  16 N16           10.4943    -6.6764     3.9031 N.2     
  17 N17           11.6717    -7.1472     3.7003 N.2     
  18 N18           11.9063    -7.2419     2.4365 N.2     
  19 N19           10.7536    -6.7873     1.7724 N.pl3   
  20 C20            1.2754     2.1522     0.0014 C.3     
  21 C21            1.6989     2.4224    -1.4437 C.3     
  22 C22            3.0106     3.2099    -1.4520 C.3     
  23 N23           -3.4727     2.2388     0.0479 N.pl3   
  24 C24           -2.9636     3.5085     0.0509 C.2     
  25 C25           -1.6219     3.4639     0.0416 C.2     
  26 C26           -4.8988     1.9036     0.0596 C.3     
  27 C27            2.5398    -2.6469    -0.0363 C.2     
  28 O28            4.7191    -4.3739     2.0833 O.3     
  29 C29           -5.3527     1.6556     1.4995 C.3     
  30 C30           -5.1186     2.9175     2.3325 C.3     
  31 C31           -6.8421     1.3056     1.5117 C.3     
  32 C32           -4.5513     0.4959     2.0943 C.3     
  33 C33            4.2633    -4.1916     0.7413 C.3     
  34 C34            2.8618    -3.6379     0.7576 C.2     
  35 H35           -1.1652    -1.8018     0.0023 H       
  36 H36           -3.3221    -0.6355     0.0290 H       
  37 H37            0.6201    -2.4423     0.8731 H       
  38 H38            0.6032    -2.4328    -0.9068 H       
  39 H39            5.8736    -4.8289     4.3872 H       
  40 H40            8.1392    -5.7343     4.6890 H       
  41 H41            8.6172    -5.9282     0.4321 H       
  42 H42            6.3504    -5.0219     0.1425 H       
  43 H43           10.6085    -6.7319     0.8149 H       
  44 H44            1.1338     3.0995     0.5217 H       
  45 H45            2.0498     1.5734     0.5048 H       
  46 H46            1.8405     1.4752    -1.9640 H       
  47 H47            0.9244     3.0012    -1.9471 H       
  48 H48            2.8690     4.1572    -0.9317 H       
  49 H49            3.7850     2.6312    -0.9487 H       
  50 H50            3.3123     3.4025    -2.4816 H       
  51 H51           -3.5537     4.4130     0.0622 H       
  52 H52           -0.9512     4.3104     0.0418 H       
  53 H53           -5.4697     2.7298    -0.3642 H       
  54 H54           -5.0656     1.0046    -0.5338 H       
  55 H55            3.2787    -2.2266    -0.7025 H       
  56 H56           -5.6895     3.7437     1.9087 H       
  57 H57           -5.4419     2.7408     3.3583 H       
  58 H58           -4.0575     3.1669     2.3238 H       
  59 H59           -7.0089     0.4066     0.9183 H       
  60 H60           -7.1654     1.1289     2.5375 H       
  61 H61           -7.4130     2.1318     1.0879 H       
  62 H62           -3.4903     0.7453     2.0857 H       
  63 H63           -4.8747     0.3193     3.1202 H       
  64 H64           -4.7181    -0.4030     1.5009 H       
  65 H65            4.9234    -3.4946     0.2249 H       
  66 H66            4.2693    -5.1501     0.2222 H       
  67 H67            2.1229    -4.0582     1.4237 H       
@<TRIPOS>BOND
   1    1    2 ar
   2    1   20 1
   3    1    6 ar
   4    2    3 ar
   5    2    7 1
   6    3    4 ar
   7    3   35 1
   8    4    5 ar
   9    4   36 1
  10    5    6 ar
  11    5   23 1
  12    6   25 1
  13    7    8 1
  14    8   27 1
  15    8   37 1
  16    8   38 1
  17    9   10 ar
  18    9   14 ar
  19    9   28 1
  20   10   11 ar
  21   10   39 1
  22   11   12 ar
  23   11   40 1
  24   12   13 ar
  25   12   15 1
  26   13   14 ar
  27   13   41 1
  28   14   42 1
  29   15   16 2
  30   15   19 1
  31   16   17 1
  32   17   18 2
  33   18   19 1
  34   19   43 1
  35   20   21 1
  36   20   44 1
  37   20   45 1
  38   21   22 1
  39   21   46 1
  40   21   47 1
  41   22   48 1
  42   22   49 1
  43   22   50 1
  44   23   24 1
  45   23   26 1
  46   24   25 2
  47   24   51 1
  48   25   52 1
  49   26   29 1
  50   26   53 1
  51   26   54 1
  52   27   34 2
  53   27   55 1
  54   28   33 1
  55   29   30 1
  56   29   32 1
  57   29   31 1
  58   30   56 1
  59   30   57 1
  60   30   58 1
  61   31   59 1
  62   31   60 1
  63   31   61 1
  64   32   62 1
  65   32   63 1
  66   32   64 1
  67   33   34 1
  68   33   65 1
  69   33   66 1
  70   34   67 1

#	End of record

