#	Name: ASD01884226
#	Creating user name:	WinNT
#	Creation time:	15. 06. 2019 19:47

#	Modifying user name:	WinNT
#	Modification time:	15. 06. 2019 19:47

#	Program:	/corina/corina34_cracker 3.40 0067  02.08.2006

@<TRIPOS>MOLECULE
ASD01884226
  50   54    0    0    0
SMALL
NO_CHARGES


@<TRIPOS>ATOM
   1 C1             0.0164     1.4393     0.5462 C.ar    
   2 C2             0.0517     0.0684     0.8020 C.ar    
   3 C3            -1.1030    -0.6251     1.0668 C.ar    
   4 C4            -2.3472     0.0258     1.0870 C.ar    
   5 C5            -2.3666     1.3984     0.8290 C.ar    
   6 C6            -1.2080     2.1030     0.5677 C.ar    
   7 C7             1.2685     2.1824     0.2607 C.ar    
   8 N8            -3.5903    -0.5270     1.3353 N.am    
   9 C9            -4.6633     0.2690     1.3082 C.2     
  10 S10           -4.0624     1.8922     0.9311 S.3     
  11 O11           -5.8200    -0.0557     1.5033 O.2     
  12 C12           -3.7281    -1.9571     1.6218 C.3     
  13 C13           -3.6133    -2.1884     3.1299 C.3     
  14 C14           -3.8481    -3.6093     3.6465 C.3     
  15 C15           -2.4338    -3.0258     3.6284 C.3     
  16 C16            1.2255     3.5520     0.0060 C.ar    
  17 C17            2.3915     4.2424    -0.2595 C.ar    
  18 C18            3.6038     3.5796    -0.2738 C.ar    
  19 C19            3.6563     2.2137    -0.0209 C.ar    
  20 C20            2.4903     1.5144     0.2522 C.ar    
  21 N21            4.8836     1.5469    -0.0366 N.3     
  22 C22            5.9422     2.3821     0.5353 C.3     
  23 C23            5.2086     1.0772    -1.3854 C.3     
  24 C24            6.3067     0.0114    -1.3159 C.3     
  25 C25            7.1520     1.5152     0.8975 C.3     
  26 S26            7.8086     0.7671    -0.6240 S.o2    
  27 O27            8.7165    -0.2667    -0.2684 O.2     
  28 O28            8.2384     1.8055    -1.4936 O.2     
  29 H29            0.9975    -0.4529     0.7913 H       
  30 H30           -1.0540    -1.6862     1.2619 H       
  31 H31           -1.2522     3.1642     0.3715 H       
  32 H32           -4.7006    -2.3053     1.2738 H       
  33 H33           -2.9400    -2.5081     1.1087 H       
  34 H34           -3.9462    -1.3628     3.7588 H       
  35 H35           -4.3351    -3.7184     4.6155 H       
  36 H36           -4.0843    -4.3792     2.9121 H       
  37 H37           -1.7396    -3.4119     2.8820 H       
  38 H38           -1.9904    -2.7511     4.5855 H       
  39 H39            0.2798     4.0735     0.0159 H       
  40 H40            2.3558     5.3036    -0.4570 H       
  41 H41            4.5129     4.1241    -0.4824 H       
  42 H42            2.5287     0.4532     0.4490 H       
  43 H43            6.2419     3.1359    -0.1929 H       
  44 H44            5.5689     2.8757     1.4326 H       
  45 H45            4.3173     0.6494    -1.8443 H       
  46 H46            5.5566     1.9168    -1.9871 H       
  47 H47            5.9810    -0.8079    -0.6751 H       
  48 H48            6.5148    -0.3651    -2.3175 H       
  49 H49            7.9199     2.1344     1.3614 H       
  50 H50            6.8455     0.7298     1.5883 H       
@<TRIPOS>BOND
   1    1    2 ar
   2    1    7 1
   3    1    6 ar
   4    2    3 ar
   5    2   29 1
   6    3    4 ar
   7    3   30 1
   8    4    5 ar
   9    4    8 1
  10    5    6 ar
  11    5   10 1
  12    6   31 1
  13    7   16 ar
  14    7   20 ar
  15    8    9 am
  16    8   12 1
  17    9   10 1
  18    9   11 2
  19   12   13 1
  20   12   32 1
  21   12   33 1
  22   13   14 1
  23   13   15 1
  24   13   34 1
  25   14   15 1
  26   14   35 1
  27   14   36 1
  28   15   37 1
  29   15   38 1
  30   16   17 ar
  31   16   39 1
  32   17   18 ar
  33   17   40 1
  34   18   19 ar
  35   18   41 1
  36   19   20 ar
  37   19   21 1
  38   20   42 1
  39   21   22 1
  40   21   23 1
  41   22   25 1
  42   22   43 1
  43   22   44 1
  44   23   24 1
  45   23   45 1
  46   23   46 1
  47   24   26 1
  48   24   47 1
  49   24   48 1
  50   25   26 1
  51   25   49 1
  52   25   50 1
  53   26   27 2
  54   26   28 2

#	End of record

