#	Name: ASD04590060
#	Creating user name:	WinNT
#	Creation time:	15. 06. 2019 20:50

#	Modifying user name:	WinNT
#	Modification time:	15. 06. 2019 20:50

#	Program:	/corina/corina34_cracker 3.40 0067  02.08.2006

@<TRIPOS>MOLECULE
ASD04590060
  34   36    0    0    0
SMALL
NO_CHARGES


@<TRIPOS>ATOM
   1 N1            -0.0768     1.2682    -0.0494 N.pl3   
   2 N2            -0.0362    -0.0145     0.0019 N.2     
   3 C3             1.1929    -0.4418    -0.2149 C.2     
   4 C4             2.0016     0.7056    -0.4235 C.2     
   5 C5             1.1591     1.7668    -0.3103 C.2     
   6 C6             1.6419    -1.8464    -0.2361 C.2     
   7 O7             2.8103    -2.1081    -0.4485 O.2     
   8 N8             0.7572    -2.8399    -0.0200 N.am    
   9 C9             1.1618    -4.1747    -0.1363 C.ar    
  10 C10            2.4398    -4.5506     0.2561 C.ar    
  11 C11            2.8370    -5.8683     0.1404 C.ar    
  12 C12            1.9619    -6.8144    -0.3663 C.ar    
  13 C13            0.6871    -6.4417    -0.7582 C.ar    
  14 C14            0.2839    -5.1261    -0.6389 C.ar    
  15 F15            2.3526    -8.1027    -0.4790 F       
  16 N16            3.3785     0.7380    -0.6897 N.am    
  17 C17            4.0034     1.9193    -0.8645 C.2     
  18 O18            3.3731     2.9578    -0.7915 O.2     
  19 C19            7.5194     1.3524    -1.5148 C.2     
  20 N20            6.2915     0.8683    -1.2556 N.pl3   
  21 C21            5.4438     1.9532    -1.1429 C.2     
  22 C22            6.2138     3.0645    -1.3433 C.2     
  23 N23            7.4643     2.6588    -1.5653 N.2     
  24 H24           -0.8759     1.8036     0.0759 H       
  25 H25            1.4229     2.8093    -0.4095 H       
  26 H26           -0.1599    -2.6299     0.2161 H       
  27 H27            3.1227    -3.8130     0.6510 H       
  28 H28            3.8309    -6.1610     0.4452 H       
  29 H29            0.0063    -7.1810    -1.1535 H       
  30 H30           -0.7119    -4.8367    -0.9405 H       
  31 H31            3.8808    -0.0897    -0.7479 H       
  32 H32            8.4100     0.7577    -1.6545 H       
  33 H33            6.0473    -0.0661    -1.1651 H       
  34 H34            5.8706     4.0883    -1.3250 H       
@<TRIPOS>BOND
   1    1    2 1
   2    1    5 1
   3    1   24 1
   4    2    3 2
   5    3    4 1
   6    3    6 1
   7    4    5 2
   8    4   16 1
   9    5   25 1
  10    6    7 2
  11    6    8 am
  12    8    9 1
  13    8   26 1
  14    9   10 ar
  15    9   14 ar
  16   10   11 ar
  17   10   27 1
  18   11   12 ar
  19   11   28 1
  20   12   13 ar
  21   12   15 1
  22   13   14 ar
  23   13   29 1
  24   14   30 1
  25   16   17 am
  26   16   31 1
  27   17   18 2
  28   17   21 1
  29   19   20 1
  30   19   23 2
  31   19   32 1
  32   20   21 1
  33   20   33 1
  34   21   22 2
  35   22   23 1
  36   22   34 1

#	End of record

