#	Name: ASD05430010
#	Creating user name:	WinNT
#	Creation time:	15. 06. 2019 20:59

#	Modifying user name:	WinNT
#	Modification time:	15. 06. 2019 20:59

#	Program:	/corina/corina34_cracker 3.40 0067  02.08.2006

@<TRIPOS>MOLECULE
ASD05430010
  60   65    0    0    0
SMALL
NO_CHARGES


@<TRIPOS>ATOM
   1 C1            -0.0951     1.1553    -0.4944 C.ar    
   2 C2            -0.0353    -0.0760     0.1576 C.ar    
   3 C3            -1.1774    -0.6163     0.7347 C.ar    
   4 C4            -2.3749     0.0618     0.6656 C.ar    
   5 C5            -2.4423     1.2973     0.0137 C.ar    
   6 C6            -1.2915     1.8439    -0.5622 C.ar    
   7 C7            -4.9222    -0.1703    -0.2840 C.3     
   8 C8            -4.8795     1.3407    -0.1200 C.2     
   9 C9            -3.7210     2.0230    -0.0615 C.2     
  10 C10           -6.0516    -0.5084    -1.2660 C.3     
  11 C11           -7.4487    -0.0230    -0.8583 C.3     
  12 N12           -7.3620     1.3821    -0.4665 N.pl3   
  13 C13           -6.1950     2.0120    -0.0295 C.2     
  14 C14           -8.4096     2.4057    -0.4576 C.3     
  15 O15           -7.8624     3.4286     0.4004 O.3     
  16 N16           -6.4636     3.1830     0.4464 N.2     
  17 N17            1.1800    -0.7701     0.2304 N.pl3   
  18 C18            1.7491    -1.3008     1.3591 C.2     
  19 C19            2.9052    -1.8773     0.9789 C.2     
  20 N20            3.0431    -1.7063    -0.3442 N.2     
  21 C21            2.0136    -1.0494    -0.8050 C.2     
  22 C22           -8.6402     2.9433    -1.8464 C.ar    
  23 C23           -9.1786     4.2034    -2.0284 C.ar    
  24 C24           -8.3098     2.1827    -2.9568 C.ar    
  25 C25           -8.5396     2.7191    -4.2170 C.ar    
  26 C26           -9.0869     3.9863    -4.3200 C.ar    
  27 N27           -9.3838     4.6819    -3.2397 N.ar    
  28 C28           -9.7070     1.8458     0.1290 C.3     
  29 C29            3.8765    -2.5905     1.8839 C.3     
  30 O30            1.0246     1.6809    -1.0585 O.3     
  31 C31            0.8904     2.9456    -1.7101 C.3     
  32 F32           -8.2325     2.0137    -5.3276 F       
  33 C33           -5.7133    -0.5185    -2.7562 C.3     
  34 C34           -5.9580    -1.8362    -2.0177 C.3     
  35 H35           -1.1268    -1.5703     1.2384 H       
  36 H36           -3.2615    -0.3610     1.1146 H       
  37 H37           -1.3391     2.7979    -1.0662 H       
  38 H38           -3.9708    -0.5250    -0.6804 H       
  39 H39           -5.1188    -0.6401     0.6797 H       
  40 H40           -3.7293     3.1030    -0.0697 H       
  41 H41           -8.1318    -0.1258    -1.7015 H       
  42 H42           -7.8105    -0.6151    -0.0178 H       
  43 H43            1.3475    -1.2631     2.3610 H       
  44 H44            1.8545    -0.7690    -1.8358 H       
  45 H45           -9.4346     4.8034    -1.1676 H       
  46 H46           -7.8836     1.1967    -2.8448 H       
  47 H47           -9.2688     4.4118    -5.2959 H       
  48 H48           -9.5298     1.5139     1.1520 H       
  49 H49          -10.4719     2.6224     0.1263 H       
  50 H50          -10.0437     1.0021    -0.4735 H       
  51 H51            3.6150    -3.6473     1.9367 H       
  52 H52            4.8865    -2.4854     1.4877 H       
  53 H53            3.8305    -2.1545     2.8818 H       
  54 H54            1.8554     3.2496    -2.1155 H       
  55 H55            0.1660     2.8619    -2.5202 H       
  56 H56            0.5475     3.6899    -0.9914 H       
  57 H57           -6.4832    -0.1795    -3.4494 H       
  58 H58           -4.6876    -0.2841    -3.0411 H       
  59 H59           -5.0933    -2.4687    -1.8167 H       
  60 H60           -6.8889    -2.3641    -2.2250 H       
@<TRIPOS>BOND
   1    1    2 ar
   2    1   30 1
   3    1    6 ar
   4    2    3 ar
   5    2   17 1
   6    3    4 ar
   7    3   35 1
   8    4    5 ar
   9    4   36 1
  10    5    6 ar
  11    5    9 1
  12    6   37 1
  13    7    8 1
  14    7   10 1
  15    7   38 1
  16    7   39 1
  17    8    9 2
  18    8   13 1
  19    9   40 1
  20   10   11 1
  21   10   33 1
  22   10   34 1
  23   11   12 1
  24   11   41 1
  25   11   42 1
  26   12   13 1
  27   12   14 1
  28   13   16 2
  29   14   15 1
  30   14   22 1
  31   14   28 1
  32   15   16 1
  33   17   18 1
  34   17   21 1
  35   18   19 2
  36   18   43 1
  37   19   20 1
  38   19   29 1
  39   20   21 2
  40   21   44 1
  41   22   23 ar
  42   22   24 ar
  43   23   27 ar
  44   23   45 1
  45   24   25 ar
  46   24   46 1
  47   25   26 ar
  48   25   32 1
  49   26   27 ar
  50   26   47 1
  51   28   48 1
  52   28   49 1
  53   28   50 1
  54   29   51 1
  55   29   52 1
  56   29   53 1
  57   30   31 1
  58   31   54 1
  59   31   55 1
  60   31   56 1
  61   33   34 1
  62   33   57 1
  63   33   58 1
  64   34   59 1
  65   34   60 1

#	End of record

