#	Name: ASD00170330
#	Creating user name:	WinNT
#	Creation time:	15. 06. 2019 18:31

#	Modifying user name:	WinNT
#	Modification time:	15. 06. 2019 18:31

#	Program:	/corina/corina34_cracker 3.40 0067  02.08.2006

@<TRIPOS>MOLECULE
ASD00170330
  50   53    0    0    0
SMALL
NO_CHARGES


@<TRIPOS>ATOM
   1 C1            -0.0185     1.5118     0.0104 C.3     
   2 C2             0.0021    -0.0041     0.0020 C.2     
   3 C3             1.0772    -0.7300    -0.3285 C.2     
   4 C4             2.3997    -0.0976    -0.7337 C.3     
   5 C5             2.1396     1.3715    -1.0822 C.3     
   6 N6             1.3687     1.9995    -0.0003 N.3     
   7 C7             0.8278    -2.1566    -0.2538 C.2     
   8 C8            -0.4486    -2.4621     0.1366 C.2     
   9 S9            -1.3494    -1.0437     0.4142 S.3     
  10 C10            1.8395    -3.1688    -0.5646 C.2     
  11 O11            2.5685    -3.5907     0.3143 O.2     
  12 N12            1.9633    -3.6334    -1.8237 N.am    
  13 C13            1.4110     3.4642    -0.1051 C.3     
  14 C14            0.8261     4.0742     1.1425 C.ar    
  15 C15            1.6426     4.3589     2.2210 C.ar    
  16 C16            1.1060     4.9185     3.3655 C.ar    
  17 C17           -0.2470     5.1938     3.4314 C.ar    
  18 C18           -1.0634     4.9099     2.3526 C.ar    
  19 C19           -0.5261     4.3543     1.2065 C.ar    
  20 C20            2.9753    -4.6460    -2.1346 C.3     
  21 C21            2.9064    -4.9917    -3.5998 C.ar    
  22 C22            3.6663    -4.2851    -4.5132 C.ar    
  23 C23            3.6031    -4.6022    -5.8572 C.ar    
  24 C24            2.7803    -5.6261    -6.2878 C.ar    
  25 C25            2.0211    -6.3333    -5.3743 C.ar    
  26 C26            2.0876    -6.0191    -4.0298 C.ar    
  27 N27           -0.9386    -3.7457     0.2855 N.pl3   
  28 H28           -0.5411     1.8756    -0.8743 H       
  29 H29           -0.5240     1.8660     0.9087 H       
  30 H30            3.1061    -0.1598     0.0941 H       
  31 H31            2.8042    -0.6159    -1.6031 H       
  32 H32            3.0905     1.8911    -1.2005 H       
  33 H33            1.5745     1.4301    -2.0124 H       
  34 H34            1.3824    -3.2972    -2.5240 H       
  35 H35            2.4448     3.7905    -0.2189 H       
  36 H36            0.8318     3.7833    -0.9716 H       
  37 H37            2.6997     4.1438     2.1695 H       
  38 H38            1.7439     5.1402     4.2083 H       
  39 H39           -0.6664     5.6303     4.3258 H       
  40 H40           -2.1206     5.1247     2.4041 H       
  41 H41           -1.1633     4.1360     0.3622 H       
  42 H42            3.9651    -4.2545    -1.8998 H       
  43 H43            2.7883    -5.5408    -1.5410 H       
  44 H44            4.3092    -3.4851    -4.1767 H       
  45 H45            4.1962    -4.0496    -6.5708 H       
  46 H46            2.7303    -5.8733    -7.3379 H       
  47 H47            1.3780    -7.1330    -5.7108 H       
  48 H48            1.4972    -6.5740    -3.3157 H       
  49 H49           -0.3646    -4.5074     0.1091 H       
  50 H50           -1.8566    -3.8849     0.5663 H       
@<TRIPOS>BOND
   1    1    2 1
   2    1    6 1
   3    1   28 1
   4    1   29 1
   5    2    3 2
   6    2    9 1
   7    3    4 1
   8    3    7 1
   9    4    5 1
  10    4   30 1
  11    4   31 1
  12    5    6 1
  13    5   32 1
  14    5   33 1
  15    6   13 1
  16    7    8 2
  17    7   10 1
  18    8    9 1
  19    8   27 1
  20   10   11 2
  21   10   12 am
  22   12   20 1
  23   12   34 1
  24   13   14 1
  25   13   35 1
  26   13   36 1
  27   14   15 ar
  28   14   19 ar
  29   15   16 ar
  30   15   37 1
  31   16   17 ar
  32   16   38 1
  33   17   18 ar
  34   17   39 1
  35   18   19 ar
  36   18   40 1
  37   19   41 1
  38   20   21 1
  39   20   42 1
  40   20   43 1
  41   21   22 ar
  42   21   26 ar
  43   22   23 ar
  44   22   44 1
  45   23   24 ar
  46   23   45 1
  47   24   25 ar
  48   24   46 1
  49   25   26 ar
  50   25   47 1
  51   26   48 1
  52   27   49 1
  53   27   50 1

#	End of record

