#	Name: ASD01813102
#	Creating user name:	WinNT
#	Creation time:	15. 06. 2019 19:29

#	Modifying user name:	WinNT
#	Modification time:	15. 06. 2019 19:29

#	Program:	/corina/corina34_cracker 3.40 0067  02.08.2006

@<TRIPOS>MOLECULE
ASD01813102
  41   44    0    0    0
SMALL
NO_CHARGES


@<TRIPOS>ATOM
   1 C1            -0.0178     1.4608     0.0101 C.3     
   2 N2             0.0021    -0.0041     0.0020 N.pl3   
   3 C3             0.0078    -0.7885    -1.0945 C.2     
   4 C4             0.0282    -2.0861    -0.6736 C.2     
   5 C5             0.0349    -2.0759     0.7348 C.2     
   6 N6             0.0245    -0.8309     1.1317 N.2     
   7 C7             0.0409    -3.2902    -1.5423 C.ar    
   8 C8             0.0380    -3.1518    -2.9283 C.ar    
   9 C9             0.0504    -4.2737    -3.7327 C.ar    
  10 C10            0.0652    -5.5345    -3.1656 C.ar    
  11 C11            0.0786    -6.7554    -4.0489 C.3     
  12 N12            1.4196    -7.3453    -4.0463 N.am    
  13 C13            2.3361    -6.9513    -4.9538 C.2     
  14 O14            2.0520    -6.0851    -5.7573 O.2     
  15 O15            3.5614    -7.5062    -4.9794 O.3     
  16 C16            4.1438    -7.8990    -3.7064 C.3     
  17 C17            3.0992    -8.6299    -2.9010 C.ar    
  18 C18            3.4575    -9.5887    -1.9787 C.ar    
  19 C19            2.4791   -10.2437    -1.2507 C.ar    
  20 C20            1.1449    -9.9386    -1.4466 C.ar    
  21 C21            0.7803    -8.9780    -2.3716 C.ar    
  22 C22            1.7597    -8.3172    -3.0984 C.ar    
  23 C23            0.0681    -5.6791    -1.7875 C.ar    
  24 F24            0.0826    -6.9135    -1.2385 F       
  25 C25            0.0616    -4.5616    -0.9739 C.ar    
  26 H26            1.0048     1.8381     0.0023 H       
  27 H27           -0.5450     1.8219    -0.8730 H       
  28 H28           -0.5280     1.8123     0.9069 H       
  29 H29           -0.0020    -0.4508    -2.1203 H       
  30 H30            0.0502    -2.9454     1.3751 H       
  31 H31            0.0258    -2.1678    -3.3733 H       
  32 H32            0.0481    -4.1663    -4.8074 H       
  33 H33           -0.6395    -7.4840    -3.6727 H       
  34 H34           -0.1912    -6.4710    -5.0660 H       
  35 H35            4.9960    -8.5557    -3.8814 H       
  36 H36            4.4689    -7.0114    -3.1637 H       
  37 H37            4.4991    -9.8289    -1.8243 H       
  38 H38            2.7588   -10.9957    -0.5277 H       
  39 H39            0.3855   -10.4523    -0.8759 H       
  40 H40           -0.2621    -8.7403    -2.5243 H       
  41 H41            0.0684    -4.6741     0.1002 H       
@<TRIPOS>BOND
   1    1    2 1
   2    1   26 1
   3    1   27 1
   4    1   28 1
   5    2    6 1
   6    2    3 1
   7    3    4 2
   8    3   29 1
   9    4    5 1
  10    4    7 1
  11    5    6 2
  12    5   30 1
  13    7   25 ar
  14    7    8 ar
  15    8    9 ar
  16    8   31 1
  17    9   10 ar
  18    9   32 1
  19   10   11 1
  20   10   23 ar
  21   11   12 1
  22   11   33 1
  23   11   34 1
  24   12   22 1
  25   12   13 am
  26   13   14 2
  27   13   15 1
  28   15   16 1
  29   16   17 1
  30   16   35 1
  31   16   36 1
  32   17   22 ar
  33   17   18 ar
  34   18   19 ar
  35   18   37 1
  36   19   20 ar
  37   19   38 1
  38   20   21 ar
  39   20   39 1
  40   21   22 ar
  41   21   40 1
  42   23   24 1
  43   23   25 ar
  44   25   41 1

#	End of record

