#	Name: ASD02500152
#	Creating user name:	WinNT
#	Creation time:	15. 06. 2019 20:22

#	Modifying user name:	WinNT
#	Modification time:	15. 06. 2019 20:22

#	Program:	/corina/corina34_cracker 3.40 0067  02.08.2006

@<TRIPOS>MOLECULE
ASD02500152
  64   67    0    0    0
SMALL
NO_CHARGES


@<TRIPOS>ATOM
   1 C1            -0.1028     1.7839    -2.9373 C.ar    
   2 C2             0.8160     1.4578    -1.9502 C.ar    
   3 C3             1.9389     0.7093    -2.2704 C.ar    
   4 C4             2.1404     0.2898    -3.5713 C.ar    
   5 C5             1.2233     0.6163    -4.5543 C.ar    
   6 C6             0.1021     1.3627    -4.2366 C.ar    
   7 S7            -1.5340     2.7285    -2.5321 S.o2    
   8 O8            -1.0762     3.8557    -1.7979 O.2     
   9 O9            -2.2952     2.8363    -3.7272 O.2     
  10 N10           -2.4384     1.8222    -1.4818 N.am    
  11 C11           -2.9654     0.6026    -1.8919 C.ar    
  12 C12           -2.8561    -0.5138    -1.0673 C.ar    
  13 C13           -3.3767    -1.7222    -1.4703 C.ar    
  14 C14           -4.0158    -1.8281    -2.7091 C.ar    
  15 C15           -4.1239    -0.7052    -3.5348 C.ar    
  16 C16           -3.6063     0.5017    -3.1237 C.ar    
  17 C17           -4.5745    -3.1221    -3.1444 C.2     
  18 O18           -5.6087    -3.1538    -3.7831 O.2     
  19 N19           -3.9387    -4.2693    -2.8341 N.am    
  20 C20           -2.6847    -4.2000    -2.2008 C.3     
  21 C21           -1.6074    -4.9223    -3.0492 C.3     
  22 N22           -1.8301    -6.3506    -2.9568 N.3     
  23 C23           -2.6520    -6.9315    -4.0387 C.3     
  24 C24           -3.8783    -6.0922    -4.3937 C.3     
  25 C25           -4.5862    -5.5549    -3.1656 C.3     
  26 C26           -0.6192    -7.0394    -2.8218 C.ar    
  27 C27           -0.3518    -7.7612    -1.6601 C.ar    
  28 C28            0.8476    -8.4411    -1.5322 C.ar    
  29 C29            1.7774    -8.4028    -2.5557 C.ar    
  30 C30            1.5131    -7.6868    -3.7080 C.ar    
  31 C31            0.3152    -7.0102    -3.8462 C.ar    
  32 O32           -1.2665    -7.7973    -0.6542 O.3     
  33 C33           -0.9244    -8.5570     0.5068 C.3     
  34 O34            0.6163     1.8718    -0.6710 O.3     
  35 C35            1.5393     1.4032     0.3141 C.3     
  36 Cl36           1.4793     0.0890    -6.1883 Cl      
  37 H37            2.6555     0.4548    -1.5035 H       
  38 H38            3.0147    -0.2931    -3.8211 H       
  39 H39           -0.6129     1.6163    -5.0053 H       
  40 H40           -2.6004     2.1422    -0.5806 H       
  41 H41           -2.3620    -0.4315    -0.1106 H       
  42 H42           -3.2913    -2.5880    -0.8304 H       
  43 H43           -4.6168    -0.7839    -4.4925 H       
  44 H44           -3.6937     1.3707    -3.7590 H       
  45 H45           -2.4024    -3.1547    -2.0751 H       
  46 H46           -2.7494    -4.6747    -1.2217 H       
  47 H47           -1.6874    -4.6057    -4.0892 H       
  48 H48           -0.6162    -4.6807    -2.6653 H       
  49 H49           -2.0322    -7.0372    -4.9291 H       
  50 H50           -2.9852    -7.9223    -3.7298 H       
  51 H51           -3.5643    -5.2545    -5.0164 H       
  52 H52           -4.5757    -6.7088    -4.9608 H       
  53 H53           -4.4758    -6.2524    -2.3353 H       
  54 H54           -5.6427    -5.3951    -3.3810 H       
  55 H55            1.0575    -9.0012    -0.6330 H       
  56 H56            2.7125    -8.9335    -2.4540 H       
  57 H57            2.2423    -7.6592    -4.5042 H       
  58 H58            0.1094    -6.4552    -4.7495 H       
  59 H59           -0.7581    -9.5967     0.2247 H       
  60 H60           -0.0156    -8.1515     0.9516 H       
  61 H61           -1.7384    -8.5024     1.2296 H       
  62 H62            1.5738     0.3140     0.2907 H       
  63 H63            2.5310     1.8028     0.1021 H       
  64 H64            1.2171     1.7353     1.3010 H       
@<TRIPOS>BOND
   1    1    2 ar
   2    1    6 ar
   3    1    7 1
   4    2    3 ar
   5    2   34 1
   6    3    4 ar
   7    3   37 1
   8    4    5 ar
   9    4   38 1
  10    5    6 ar
  11    5   36 1
  12    6   39 1
  13    7    8 2
  14    7    9 2
  15    7   10 am
  16   10   11 1
  17   10   40 1
  18   11   12 ar
  19   11   16 ar
  20   12   13 ar
  21   12   41 1
  22   13   14 ar
  23   13   42 1
  24   14   15 ar
  25   14   17 1
  26   15   16 ar
  27   15   43 1
  28   16   44 1
  29   17   18 2
  30   17   19 am
  31   19   20 1
  32   19   25 1
  33   20   21 1
  34   20   45 1
  35   20   46 1
  36   21   22 1
  37   21   47 1
  38   21   48 1
  39   22   23 1
  40   22   26 1
  41   23   24 1
  42   23   49 1
  43   23   50 1
  44   24   25 1
  45   24   51 1
  46   24   52 1
  47   25   53 1
  48   25   54 1
  49   26   27 ar
  50   26   31 ar
  51   27   28 ar
  52   27   32 1
  53   28   29 ar
  54   28   55 1
  55   29   30 ar
  56   29   56 1
  57   30   31 ar
  58   30   57 1
  59   31   58 1
  60   32   33 1
  61   33   59 1
  62   33   60 1
  63   33   61 1
  64   34   35 1
  65   35   62 1
  66   35   63 1
  67   35   64 1

#	End of record

