#	Name: ASD03912012
#	Creating user name:	WinNT
#	Creation time:	15. 06. 2019 20:47

#	Modifying user name:	WinNT
#	Modification time:	15. 06. 2019 20:47

#	Program:	/corina/corina34_cracker 3.40 0067  02.08.2006

@<TRIPOS>MOLECULE
ASD03912012
  51   52    0    0    0
SMALL
NO_CHARGES


@<TRIPOS>ATOM
   1 C1            -1.1808    -0.5201    -0.5465 C.ar    
   2 C2            -0.1707    -0.0893     0.2940 C.ar    
   3 C3            -0.3500     1.0387     1.0736 C.ar    
   4 C4            -1.5393     1.7384     1.0152 C.ar    
   5 C5            -2.5555     1.3084     0.1721 C.ar    
   6 C6            -2.3701     0.1787    -0.6140 C.ar    
   7 C7             0.7534     1.5046     1.9882 C.3     
   8 N8            -3.7616     2.0151     0.1107 N.am    
   9 C9            -3.7611     3.3591     0.2110 C.2     
  10 C10           -5.0462     4.1279     0.0424 C.3     
  11 O11           -2.7262     3.9499     0.4370 O.2     
  12 C12           -4.7743     5.6017     0.2001 C.ar    
  13 C13           -4.4429     6.3645    -0.9045 C.ar    
  14 C14           -4.1932     7.7157    -0.7625 C.ar    
  15 C15           -4.2752     8.3073     0.4897 C.ar    
  16 C16           -4.6079     7.5398     1.5964 C.ar    
  17 C17           -4.8622     6.1900     1.4483 C.ar    
  18 O18           -4.0296     9.6363     0.6320 O.3     
  19 C19           -4.1832    10.1879     1.9413 C.3     
  20 C20           -0.9812    -1.7499    -1.3943 C.3     
  21 C21           -3.3345    11.4550     2.0636 C.3     
  22 C22           -1.8531    11.0897     1.9495 C.3     
  23 C23           -1.0044    12.3568     2.0719 C.3     
  24 C24           -5.6321    10.5292     2.1758 C.2     
  25 O25           -6.4495    10.3214     1.3105 O.2     
  26 O26           -6.0148    11.0640     3.3459 O.3     
  27 H27            0.7599    -0.6352     0.3420 H       
  28 H28           -1.6789     2.6189     1.6248 H       
  29 H29           -3.1584    -0.1581    -1.2710 H       
  30 H30            1.3999     2.1999     1.4527 H       
  31 H31            0.3204     2.0049     2.8544 H       
  32 H32            1.3380     0.6462     2.3189 H       
  33 H33           -4.5982     1.5377    -0.0042 H       
  34 H34           -5.4557     3.9381    -0.9498 H       
  35 H35           -5.7630     3.8077     0.7986 H       
  36 H36           -4.3789     5.9034    -1.8790 H       
  37 H37           -3.9341     8.3110    -1.6256 H       
  38 H38           -4.6724     7.9980     2.5723 H       
  39 H39           -5.1212     5.5921     2.3096 H       
  40 H40           -3.8569     9.4590     2.6831 H       
  41 H41           -1.3135    -2.6294    -0.8427 H       
  42 H42           -1.5611    -1.6563    -2.3125 H       
  43 H43            0.0755    -1.8536    -1.6410 H       
  44 H44           -3.6001    12.1487     1.2659 H       
  45 H45           -3.5196    11.9244     3.0298 H       
  46 H46           -1.5875    10.3960     2.7473 H       
  47 H47           -1.6680    10.6203     0.9833 H       
  48 H48           -1.2701    13.0505     1.2741 H       
  49 H49           -1.1895    12.8262     3.0381 H       
  50 H50            0.0509    12.0966     1.9906 H       
  51 H51           -6.9547    11.2661     3.4498 H       
@<TRIPOS>BOND
   1    1    2 ar
   2    1   20 1
   3    1    6 ar
   4    2    3 ar
   5    2   27 1
   6    3    4 ar
   7    3    7 1
   8    4    5 ar
   9    4   28 1
  10    5    6 ar
  11    5    8 1
  12    6   29 1
  13    7   30 1
  14    7   31 1
  15    7   32 1
  16    8    9 am
  17    8   33 1
  18    9   10 1
  19    9   11 2
  20   10   12 1
  21   10   34 1
  22   10   35 1
  23   12   13 ar
  24   12   17 ar
  25   13   14 ar
  26   13   36 1
  27   14   15 ar
  28   14   37 1
  29   15   16 ar
  30   15   18 1
  31   16   17 ar
  32   16   38 1
  33   17   39 1
  34   18   19 1
  35   19   21 1
  36   19   24 1
  37   19   40 1
  38   20   41 1
  39   20   42 1
  40   20   43 1
  41   21   22 1
  42   21   44 1
  43   21   45 1
  44   22   23 1
  45   22   46 1
  46   22   47 1
  47   23   48 1
  48   23   49 1
  49   23   50 1
  50   24   25 2
  51   24   26 1
  52   26   51 1

#	End of record

