#	Name: ASD01910273
#	Creating user name:	WinNT
#	Creation time:	15. 06. 2019 19:55

#	Modifying user name:	WinNT
#	Modification time:	15. 06. 2019 19:55

#	Program:	/corina/corina34_cracker 3.40 0067  02.08.2006

@<TRIPOS>MOLECULE
ASD01910273
  48   51    0    0    0
SMALL
NO_CHARGES


@<TRIPOS>ATOM
   1 C1             5.0658     1.4775    -0.0460 C.ar    
   2 C2             5.0922     0.0788    -0.0504 C.ar    
   3 C3             6.2999    -0.5842    -0.0712 C.ar    
   4 C4             7.4874     0.1319    -0.0877 C.ar    
   5 C5             7.4682     1.5186    -0.0835 C.ar    
   6 C6             6.2672     2.1939    -0.0682 C.ar    
   7 F7             8.6682    -0.5243    -0.1076 F       
   8 C8             3.7800     2.1920    -0.0244 C.2     
   9 C9             3.7579     3.5407    -0.0203 C.2     
  10 C10            2.4788     4.2514     0.0012 C.2     
  11 O11            1.4357     3.6296    -0.0795 O.2     
  12 N12            2.4560     5.5946     0.1104 N.am    
  13 C13            3.6982     6.3495     0.3237 C.3     
  14 C14            3.8076     7.4336    -0.7531 C.3     
  15 C15            2.5403     8.2915    -0.7382 C.3     
  16 C16            1.3258     7.4160    -1.0556 C.3     
  17 C17            1.1891     6.3322     0.0122 C.3     
  18 N18            6.2771     9.6167     0.5408 N.2     
  19 C19            6.8538     9.3352    -0.5987 C.2     
  20 N20            6.0367     8.4846    -1.2602 N.2     
  21 C21            5.0064     8.3024    -0.4723 C.2     
  22 O22            5.2179     9.0322     0.6274 O.3     
  23 C23            8.1600     9.8523    -1.0764 C.ar    
  24 C24            8.8977    10.7279    -0.2819 C.ar    
  25 C25           10.1117    11.2063    -0.7298 C.ar    
  26 C26           10.5975    10.8178    -1.9680 C.ar    
  27 C27            9.8672     9.9474    -2.7612 C.ar    
  28 C28            8.6553     9.4593    -2.3183 C.ar    
  29 F29           11.7863    11.2893    -2.4033 F       
  30 H30            4.1682    -0.4800    -0.0372 H       
  31 H31            6.3218    -1.6640    -0.0742 H       
  32 H32            8.3965     2.0704    -0.0961 H       
  33 H33            6.2536     3.2738    -0.0649 H       
  34 H34            2.8538     1.6367    -0.0119 H       
  35 H35            4.6841     4.0960    -0.0328 H       
  36 H36            3.6786     6.8143     1.3095 H       
  37 H37            4.5521     5.6758     0.2521 H       
  38 H38            3.9182     6.9651    -1.7311 H       
  39 H39            2.4169     8.7399     0.2476 H       
  40 H40            2.6260     9.0789    -1.4870 H       
  41 H41            0.4266     8.0319    -1.0679 H       
  42 H42            1.4599     6.9477    -2.0307 H       
  43 H43            0.3866     5.6476    -0.2627 H       
  44 H44            0.9654     6.7932     0.9742 H       
  45 H45            8.5194    11.0317     0.6830 H       
  46 H46           10.6840    11.8849    -0.1147 H       
  47 H47           10.2493     9.6473    -3.7258 H       
  48 H48            8.0867     8.7809    -2.9371 H       
@<TRIPOS>BOND
   1    1    2 ar
   2    1    8 1
   3    1    6 ar
   4    2    3 ar
   5    2   30 1
   6    3    4 ar
   7    3   31 1
   8    4    5 ar
   9    4    7 1
  10    5    6 ar
  11    5   32 1
  12    6   33 1
  13    8    9 2
  14    8   34 1
  15    9   10 1
  16    9   35 1
  17   10   11 2
  18   10   12 am
  19   12   13 1
  20   12   17 1
  21   13   14 1
  22   13   36 1
  23   13   37 1
  24   14   15 1
  25   14   21 1
  26   14   38 1
  27   15   16 1
  28   15   39 1
  29   15   40 1
  30   16   17 1
  31   16   41 1
  32   16   42 1
  33   17   43 1
  34   17   44 1
  35   18   19 2
  36   18   22 1
  37   19   20 1
  38   19   23 1
  39   20   21 2
  40   21   22 1
  41   23   24 ar
  42   23   28 ar
  43   24   25 ar
  44   24   45 1
  45   25   26 ar
  46   25   46 1
  47   26   27 ar
  48   26   29 1
  49   27   28 ar
  50   27   47 1
  51   28   48 1

#	End of record

