#	Name: ASD01870071
#	Creating user name:	WinNT
#	Creation time:	15. 06. 2019 19:38

#	Modifying user name:	WinNT
#	Modification time:	15. 06. 2019 19:38

#	Program:	/corina/corina34_cracker 3.40 0067  02.08.2006

@<TRIPOS>MOLECULE
ASD01870071
  47   50    0    0    0
SMALL
NO_CHARGES


@<TRIPOS>ATOM
   1 C1             0.3061     1.2080    -0.2392 C.ar    
   2 C2             0.4880    -0.1398     0.0283 C.ar    
   3 N3             1.6793    -0.6237     0.2920 N.ar    
   4 C4             2.7719     0.1474     0.3167 C.ar    
   5 C5             2.6679     1.5117     0.0575 C.ar    
   6 C6             1.3955     2.0518    -0.2279 C.ar    
   7 S7             4.4436    -0.2861     0.6430 S.3     
   8 C8             5.0052     1.3628     0.4318 C.2     
   9 C9             3.9592     2.2054     0.1256 C.2     
  10 C10            6.3152     1.9071     0.5290 C.2     
  11 N11            6.4861     3.2273     0.3180 N.am    
  12 C12            5.4166     4.0111     0.0188 C.2     
  13 N13            4.2163     3.5271    -0.0720 N.2     
  14 N14            1.2435     3.4157    -0.4947 N.4     
  15 C15            7.7649     3.7913     0.4075 C.ar    
  16 O16            7.2663     1.1927     0.7985 O.2     
  17 C17           -0.1703     3.7066    -0.7678 C.3     
  18 C18            8.7363     3.4652    -0.5298 C.ar    
  19 C19            9.9963     4.0235    -0.4391 C.ar    
  20 C20           10.2910     4.9063     0.5837 C.ar    
  21 C21            9.3259     5.2330     1.5186 C.ar    
  22 C22            8.0624     4.6822     1.4303 C.ar    
  23 C23           11.6671     5.5132     0.6799 C.3     
  24 C24           11.7048     6.8200    -0.1148 C.3     
  25 C25            1.6879     4.1947     0.6688 C.3     
  26 C26            2.0532     3.7788    -1.6653 C.3     
  27 H27           -0.6790     1.5923    -0.4586 H       
  28 H28           -0.3646    -0.8027     0.0199 H       
  29 H29            5.5703     5.0672    -0.1470 H       
  30 H30           -0.7711     3.4371     0.1008 H       
  31 H31           -0.2888     4.7700    -0.9758 H       
  32 H32           -0.5000     3.1286    -1.6311 H       
  33 H33            8.5068     2.7756    -1.3286 H       
  34 H34           10.7523     3.7700    -1.1675 H       
  35 H35            9.5592     5.9225     2.3164 H       
  36 H36            7.3091     4.9377     2.1608 H       
  37 H37           11.9023     5.7164     1.7247 H       
  38 H38           12.4002     4.8179     0.2710 H       
  39 H39           11.4696     6.6168    -1.1596 H       
  40 H40           10.9716     7.5152     0.2940 H       
  41 H41           12.7001     7.2590    -0.0452 H       
  42 H42            2.6781     3.8574     0.9752 H       
  43 H43            1.7296     5.2512     0.4041 H       
  44 H44            0.9856     4.0534     1.4904 H       
  45 H45            1.6135     3.3406    -2.5613 H       
  46 H46            2.0792     4.8638    -1.7667 H       
  47 H47            3.0677     3.4015    -1.5366 H       
@<TRIPOS>BOND
   1    1    2 ar
   2    1    6 ar
   3    1   27 1
   4    2    3 ar
   5    2   28 1
   6    3    4 ar
   7    4    5 ar
   8    4    7 1
   9    5    6 ar
  10    5    9 1
  11    6   14 1
  12    7    8 1
  13    8    9 2
  14    8   10 1
  15    9   13 1
  16   10   11 am
  17   10   16 2
  18   11   12 1
  19   11   15 1
  20   12   13 2
  21   12   29 1
  22   14   17 1
  23   14   25 1
  24   14   26 1
  25   15   18 ar
  26   15   22 ar
  27   17   30 1
  28   17   31 1
  29   17   32 1
  30   18   19 ar
  31   18   33 1
  32   19   20 ar
  33   19   34 1
  34   20   21 ar
  35   20   23 1
  36   21   22 ar
  37   21   35 1
  38   22   36 1
  39   23   24 1
  40   23   37 1
  41   23   38 1
  42   24   39 1
  43   24   40 1
  44   24   41 1
  45   25   42 1
  46   25   43 1
  47   25   44 1
  48   26   45 1
  49   26   46 1
  50   26   47 1

#	End of record

