#	Name: ASD01911758
#	Creating user name:	WinNT
#	Creation time:	15. 06. 2019 19:58

#	Modifying user name:	WinNT
#	Modification time:	15. 06. 2019 19:58

#	Program:	/corina/corina34_cracker 3.40 0067  02.08.2006

@<TRIPOS>MOLECULE
ASD01911758
  39   42    0    0    0
SMALL
NO_CHARGES


@<TRIPOS>ATOM
   1 N1            -0.0327     1.4644     0.0172 N.3     
   2 C2             0.0021    -0.0041     0.0020 C.3     
   3 C3             0.6244    -0.5050     1.2798 C.2     
   4 C4            -0.0131    -0.6925     2.4420 C.2     
   5 S5             2.3150    -0.9522     1.4992 S.3     
   6 C6             1.9863    -1.3505     3.1836 C.2     
   7 N7             0.7221    -1.1372     3.4329 N.2     
   8 C8             2.9492    -1.8354     4.1262 C.1     
   9 C9             3.7385    -2.2329     4.8990 C.1     
  10 C10            4.7013    -2.7178     5.8416 C.ar    
  11 C11            4.3174    -2.9995     7.1560 C.ar    
  12 C12            5.2503    -3.4666     8.0578 C.ar    
  13 C13            6.5635    -3.6566     7.6646 C.ar    
  14 C14            6.9512    -3.3794     6.3653 C.ar    
  15 C15            6.0286    -2.9172     5.4505 C.ar    
  16 C16           -0.4735     1.9988    -1.2929 C.3     
  17 C17            0.6915     2.9192    -1.7727 C.3     
  18 C18            1.8384     1.9219    -2.1275 C.3     
  19 C19            2.2510     1.3193    -0.7642 C.3     
  20 C20            1.3280     2.0302     0.2721 C.3     
  21 C21            1.1931     3.4502    -0.3815 C.3     
  22 H22           -1.0135    -0.3907    -0.0835 H       
  23 H23            0.5933    -0.3447    -0.8480 H       
  24 H24           -1.0677    -0.4896     2.5567 H       
  25 H25            3.2931    -2.8515     7.4644 H       
  26 H26            4.9553    -3.6844     9.0737 H       
  27 H27            7.2895    -4.0226     8.3754 H       
  28 H28            7.9779    -3.5298     6.0659 H       
  29 H29            6.3325    -2.7018     4.4368 H       
  30 H30           -0.6281     1.1845    -2.0008 H       
  31 H31           -1.3894     2.5782    -1.1761 H       
  32 H32            0.4427     3.6601    -2.5325 H       
  33 H33            1.4725     1.1414    -2.7946 H       
  34 H34            2.6771     2.4503    -2.5806 H       
  35 H35            2.0756     0.2435    -0.7549 H       
  36 H36            3.2981     1.5368    -0.5533 H       
  37 H37            1.6669     1.9991     1.3076 H       
  38 H38            2.1528     3.9612    -0.4576 H       
  39 H39            0.4443     4.0642     0.1189 H       
@<TRIPOS>BOND
   1    1    2 1
   2    1   16 1
   3    1   20 1
   4    2    3 1
   5    2   22 1
   6    2   23 1
   7    3    4 2
   8    3    5 1
   9    4    7 1
  10    4   24 1
  11    5    6 1
  12    6    7 2
  13    6    8 1
  14    8    9 3
  15    9   10 1
  16   10   11 ar
  17   10   15 ar
  18   11   12 ar
  19   11   25 1
  20   12   13 ar
  21   12   26 1
  22   13   14 ar
  23   13   27 1
  24   14   15 ar
  25   14   28 1
  26   15   29 1
  27   16   17 1
  28   16   30 1
  29   16   31 1
  30   17   18 1
  31   17   21 1
  32   17   32 1
  33   18   19 1
  34   18   33 1
  35   18   34 1
  36   19   20 1
  37   19   35 1
  38   19   36 1
  39   20   21 1
  40   20   37 1
  41   21   38 1
  42   21   39 1

#	End of record

