#	Name: ASD01200226
#	Creating user name:	WinNT
#	Creation time:	15. 06. 2019 19:08

#	Modifying user name:	WinNT
#	Modification time:	15. 06. 2019 19:08

#	Program:	/corina/corina34_cracker 3.40 0067  02.08.2006

@<TRIPOS>MOLECULE
ASD01200226
  27   29    0    0    0
SMALL
NO_CHARGES


@<TRIPOS>ATOM
   1 C1            -0.0167     1.3797     0.0096 C.ar    
   2 C2             0.0021    -0.0041     0.0020 C.ar    
   3 C3            -1.1911    -0.7035    -0.0037 C.ar    
   4 C4            -2.3917    -0.0248    -0.0019 C.ar    
   5 C5            -2.4274     1.3616     0.0325 C.ar    
   6 C6            -1.2161     2.0595     0.0305 C.ar    
   7 S7            -3.9065    -0.9366    -0.0763 S.o2    
   8 N8            -5.0868     0.2286     0.1274 N.am    
   9 C9            -4.7863     1.5303    -0.5052 C.3     
  10 N10           -3.5975     2.1034     0.1124 N.3     
  11 C11           -3.3791     3.4821    -0.3451 C.3     
  12 O12           -4.0312    -1.4234    -1.4055 O.2     
  13 O13           -3.9447    -1.7693     1.0746 O.2     
  14 C14           -3.1490     3.7017    -1.8417 C.3     
  15 C15           -4.4728     4.1239    -1.2013 C.3     
  16 Cl16           1.4772     2.2638     0.0001 Cl      
  17 H17            0.9428    -0.5346     0.0002 H       
  18 H18           -1.1826    -1.7834    -0.0099 H       
  19 H19           -1.2199     3.1395     0.0368 H       
  20 H20           -5.9050     0.0636     0.6216 H       
  21 H21           -4.6085     1.3846    -1.5706 H       
  22 H22           -5.6303     2.2059    -0.3658 H       
  23 H23           -2.8381     4.1271     0.3472 H       
  24 H24           -2.4568     4.4913    -2.1339 H       
  25 H25           -3.1596     2.8231    -2.4868 H       
  26 H26           -5.3543     3.5231    -1.4250 H       
  27 H27           -4.6515     5.1914    -1.0721 H       
@<TRIPOS>BOND
   1    1    2 ar
   2    1   16 1
   3    1    6 ar
   4    2    3 ar
   5    2   17 1
   6    3    4 ar
   7    3   18 1
   8    4    5 ar
   9    4    7 1
  10    5    6 ar
  11    5   10 1
  12    6   19 1
  13    7    8 am
  14    7   12 2
  15    7   13 2
  16    8    9 1
  17    8   20 1
  18    9   10 1
  19    9   21 1
  20    9   22 1
  21   10   11 1
  22   11   14 1
  23   11   15 1
  24   11   23 1
  25   14   15 1
  26   14   24 1
  27   14   25 1
  28   15   26 1
  29   15   27 1

#	End of record

