#	Name: ASD01411048
#	Creating user name:	WinNT
#	Creation time:	15. 06. 2019 19:19

#	Modifying user name:	WinNT
#	Modification time:	15. 06. 2019 19:19

#	Program:	/corina/corina34_cracker 3.40 0067  02.08.2006

@<TRIPOS>MOLECULE
ASD01411048
  29   30    0    0    0
SMALL
NO_CHARGES


@<TRIPOS>ATOM
   1 C1            -0.1833     1.7696    -0.8530 C.2     
   2 S2            -0.0937     0.0137    -0.6302 S.3     
   3 C3            -1.8212    -0.1715    -0.2674 C.2     
   4 C4            -2.3520     1.1963    -0.3509 C.2     
   5 N5            -1.4569     2.1238    -0.6475 N.am    
   6 O6            -3.5249     1.4563    -0.1577 O.2     
   7 S7             1.1140     2.8143    -1.2485 S.2     
   8 C8            -2.4959    -1.3122     0.0201 C.2     
   9 C9            -1.8249    -2.6142    -0.1047 C.ar    
  10 C10           -1.8594     3.5279    -0.7604 C.3     
  11 C11           -2.3239    -3.7307     0.5754 C.ar    
  12 C12           -1.6888    -4.9482     0.4532 C.ar    
  13 C13           -0.5605    -5.0679    -0.3396 C.ar    
  14 C14           -0.0602    -3.9683    -1.0153 C.ar    
  15 C15           -0.6872    -2.7451    -0.9087 C.ar    
  16 C16           -1.7329     4.1964     0.5843 C.2     
  17 O17           -1.3462     3.5648     1.5390 O.2     
  18 O18           -2.0498     5.4935     0.7214 O.3     
  19 N19            0.1152    -6.3790    -0.4652 N.pl3   
  20 O20           -0.3219    -7.3487     0.1282 O.2     
  21 O21            1.1083    -6.4881    -1.1619 O.2     
  22 H22           -3.5261    -1.2641     0.3406 H       
  23 H23           -1.2154     4.0338    -1.4796 H       
  24 H24           -2.8944     3.5832    -1.0977 H       
  25 H25           -3.2040    -3.6388     1.1947 H       
  26 H26           -2.0724    -5.8108     0.9777 H       
  27 H27            0.8210    -4.0699    -1.6314 H       
  28 H28           -0.2958    -1.8881    -1.4368 H       
  29 H29           -1.9525     5.8784     1.6032 H       
@<TRIPOS>BOND
   1    1    2 1
   2    1    7 2
   3    1    5 am
   4    2    3 1
   5    3    4 1
   6    3    8 2
   7    4    5 am
   8    4    6 2
   9    5   10 1
  10    8    9 1
  11    8   22 1
  12    9   11 ar
  13    9   15 ar
  14   10   16 1
  15   10   23 1
  16   10   24 1
  17   11   12 ar
  18   11   25 1
  19   12   13 ar
  20   12   26 1
  21   13   14 ar
  22   13   19 1
  23   14   15 ar
  24   14   27 1
  25   15   28 1
  26   16   17 2
  27   16   18 1
  28   18   29 1
  29   19   20 2
  30   19   21 2

#	End of record

