#	Name: ASD04910505
#	Creating user name:	WinNT
#	Creation time:	15. 06. 2019 20:56

#	Modifying user name:	WinNT
#	Modification time:	15. 06. 2019 20:56

#	Program:	/corina/corina34_cracker 3.40 0067  02.08.2006

@<TRIPOS>MOLECULE
ASD04910505
  67   69    0    0    0
SMALL
NO_CHARGES


@<TRIPOS>ATOM
   1 C1             0.9659    -1.5306     4.2466 C.ar    
   2 C2             0.6978    -1.9386     2.9681 C.ar    
   3 C3             1.5173    -1.5067     1.9264 C.ar    
   4 N4             2.5502    -0.7081     2.1582 N.ar    
   5 C5             2.8429    -0.2925     3.3729 C.ar    
   6 C6             2.0653    -0.6855     4.4631 C.ar    
   7 C7             2.3943    -0.2193     5.8237 C.2     
   8 N8             3.4523     0.5921     6.0207 N.am    
   9 O9             1.7109    -0.5671     6.7674 O.2     
  10 C10            3.7789     1.0550     7.3717 C.3     
  11 C11            5.0144     1.9558     7.3173 C.3     
  12 C12            5.3504     2.4320     8.7071 C.2     
  13 O13            6.4041     3.2401     8.9032 O.3     
  14 O14            4.6713     2.0864     9.6448 O.2     
  15 N15            1.2494    -1.9178     0.6317 N.pl3   
  16 C16            0.1621    -2.8653     0.3742 C.3     
  17 C17           -0.3487    -2.6790    -1.0560 C.3     
  18 C18            0.6714    -4.2732     0.5463 C.ar    
  19 C19           -0.9263    -1.2708    -1.2119 C.3     
  20 C20           -1.3113    -1.0365    -2.6740 C.3     
  21 C21           -2.1673    -1.1279    -0.3285 C.3     
  22 C22           -0.1223    -5.2236     1.1619 C.ar    
  23 C23            0.3415    -6.5148     1.3207 C.ar    
  24 C24            1.6060    -6.8582     0.8615 C.ar    
  25 C25            2.4005    -5.9017     0.2438 C.ar    
  26 C26            1.9291    -4.6134     0.0832 C.ar    
  27 C27           -0.5238    -7.5499     1.9922 C.3     
  28 C28            3.7738    -6.2701    -0.2557 C.3     
  29 N29            2.0797    -8.1677     1.0216 N.pl3   
  30 N30            2.1552    -8.8755     2.2282 N.2     
  31 C31            2.6473   -10.0618     1.9767 C.2     
  32 C32            2.9012   -10.1485     0.6034 C.2     
  33 C33            2.5393    -8.9737     0.0378 C.2     
  34 C34            3.4717   -11.3417    -0.1190 C.3     
  35 F35            3.7150   -12.3697     0.7982 F       
  36 F36            2.5592   -11.7833    -1.0831 F       
  37 F37            4.6705   -10.9798    -0.7427 F       
  38 H38            0.3430    -1.8482     5.0697 H       
  39 H39           -0.1406    -2.5893     2.7681 H       
  40 H40            3.6917     0.3573     3.5268 H       
  41 H41            3.9974     0.8695     5.2679 H       
  42 H42            2.9372     1.6169     7.7766 H       
  43 H43            3.9833     0.1959     8.0106 H       
  44 H44            5.8561     1.3940     6.9124 H       
  45 H45            4.8099     2.8149     6.6784 H       
  46 H46            6.5800     3.5193     9.8122 H       
  47 H47            1.7816    -1.5784    -0.1049 H       
  48 H48           -0.6513    -2.6847     1.0769 H       
  49 H49            0.4755    -2.8133    -1.7565 H       
  50 H50           -1.1253    -3.4153    -1.2632 H       
  51 H51           -0.1793    -0.5364    -0.9106 H       
  52 H52           -2.0582    -1.7710    -2.9752 H       
  53 H53           -1.7228    -0.0333    -2.7850 H       
  54 H54           -0.4272    -1.1383    -3.3033 H       
  55 H55           -2.6365    -0.1619    -0.5147 H       
  56 H56           -2.8728    -1.9255    -0.5613 H       
  57 H57           -1.8766    -1.1946     0.7199 H       
  58 H58           -1.1057    -4.9558     1.5193 H       
  59 H59            2.5467    -3.8690    -0.3972 H       
  60 H60           -1.1689    -8.0207     1.2504 H       
  61 H61            0.1087    -8.3066     2.4563 H       
  62 H62           -1.1371    -7.0710     2.7555 H       
  63 H63            3.7115    -6.5702    -1.3017 H       
  64 H64            4.4369    -5.4100    -0.1633 H       
  65 H65            4.1662    -7.0967     0.3367 H       
  66 H66            2.8270   -10.8397     2.7040 H       
  67 H67            2.6102    -8.7227    -1.0102 H       
@<TRIPOS>BOND
   1    1    2 ar
   2    1    6 ar
   3    1   38 1
   4    2    3 ar
   5    2   39 1
   6    3    4 ar
   7    3   15 1
   8    4    5 ar
   9    5    6 ar
  10    5   40 1
  11    6    7 1
  12    7    8 am
  13    7    9 2
  14    8   10 1
  15    8   41 1
  16   10   11 1
  17   10   42 1
  18   10   43 1
  19   11   12 1
  20   11   44 1
  21   11   45 1
  22   12   13 1
  23   12   14 2
  24   13   46 1
  25   15   16 1
  26   15   47 1
  27   16   17 1
  28   16   18 1
  29   16   48 1
  30   17   19 1
  31   17   49 1
  32   17   50 1
  33   18   22 ar
  34   18   26 ar
  35   19   20 1
  36   19   21 1
  37   19   51 1
  38   20   52 1
  39   20   53 1
  40   20   54 1
  41   21   55 1
  42   21   56 1
  43   21   57 1
  44   22   23 ar
  45   22   58 1
  46   23   24 ar
  47   23   27 1
  48   24   25 ar
  49   24   29 1
  50   25   26 ar
  51   25   28 1
  52   26   59 1
  53   27   60 1
  54   27   61 1
  55   27   62 1
  56   28   63 1
  57   28   64 1
  58   28   65 1
  59   29   30 1
  60   29   33 1
  61   30   31 2
  62   31   32 1
  63   31   66 1
  64   32   33 2
  65   32   34 1
  66   33   67 1
  67   34   35 1
  68   34   36 1
  69   34   37 1

#	End of record

