#	Name: ASD03730158
#	Creating user name:	WinNT
#	Creation time:	15. 06. 2019 20:44

#	Modifying user name:	WinNT
#	Modification time:	15. 06. 2019 20:44

#	Program:	/corina/corina34_cracker 3.40 0067  02.08.2006

@<TRIPOS>MOLECULE
ASD03730158
  53   57    0    0    0
SMALL
NO_CHARGES


@<TRIPOS>ATOM
   1 C1            -0.0184     1.5028     0.0103 C.2     
   2 C2             0.0021    -0.0041     0.0020 C.3     
   3 C3             1.4513    -0.4944    -0.0145 C.3     
   4 C4             1.4720    -2.0242    -0.0229 C.3     
   5 C5             2.9213    -2.5145    -0.0393 C.3     
   6 O6             1.0197     2.1211     0.0037 O.2     
   7 O7            -1.1898     2.1580     0.0194 O.3     
   8 O8            -1.7679    -7.5345    -2.1613 O.3     
   9 C9            -2.1543    -8.8995    -2.4072 C.3     
  10 O10           -0.9604    -9.5025    -2.9400 O.3     
  11 C11            0.0767    -8.7816    -2.4206 C.ar    
  12 C12           -0.4204    -7.5712    -1.9429 C.ar    
  13 C13            1.4264    -9.0654    -2.3142 C.ar    
  14 C14            2.2962    -8.1475    -1.7332 C.ar    
  15 C15            1.7892    -6.9382    -1.2672 C.ar    
  16 C16            0.4430    -6.6549    -1.3662 C.ar    
  17 O17            3.6401    -8.2355    -1.5177 O.3     
  18 C18            2.9606    -6.1610    -0.7289 C.3     
  19 C19            4.1725    -6.9161    -1.2915 C.3     
  20 N20            2.9411    -3.9794    -0.0474 N.am    
  21 C21            2.9411    -4.7258    -1.1699 C.2     
  22 C22            2.9757    -6.1163     0.7703 C.ar    
  23 C23            2.9976    -7.0830     1.7507 C.ar    
  24 C24            3.0084    -6.7168     3.0849 C.ar    
  25 C25            2.9966    -5.3778     3.4311 C.ar    
  26 C26            2.9737    -4.4059     2.4528 C.ar    
  27 C27            2.9631    -4.7653     1.1073 C.ar    
  28 O28            2.9283    -4.3180    -2.3121 O.2     
  29 C29           -1.1335     3.6089     0.0270 C.3     
  30 C30           -2.5551     4.1744     0.0369 C.3     
  31 H31           -0.4983    -0.3791     0.8948 H       
  32 H32           -0.5153    -0.3696    -0.8850 H       
  33 H33            1.9516    -0.1193    -0.9073 H       
  34 H34            1.9686    -0.1289     0.8726 H       
  35 H35            0.9717    -2.3993     0.8699 H       
  36 H36            0.9547    -2.3897    -0.9099 H       
  37 H37            3.4216    -2.1395    -0.9321 H       
  38 H38            3.4386    -2.1490     0.8477 H       
  39 H39           -2.4480    -9.3877    -1.4779 H       
  40 H40           -2.9634    -8.9431    -3.1362 H       
  41 H41            1.8077   -10.0055    -2.6845 H       
  42 H42            0.0613    -5.7159    -0.9934 H       
  43 H43            4.9827    -6.9453    -0.5630 H       
  44 H44            4.5075    -6.4682    -2.2271 H       
  45 H45            3.0066    -8.1280     1.4780 H       
  46 H46            3.0264    -7.4746     3.8541 H       
  47 H47            3.0049    -5.0919     4.4726 H       
  48 H48            2.9640    -3.3624     2.7311 H       
  49 H49           -0.6017     3.9472     0.9164 H       
  50 H50           -0.6102     3.9569    -0.8636 H       
  51 H51           -2.5128     5.2636     0.0426 H       
  52 H52           -3.0869     3.8361    -0.8525 H       
  53 H53           -3.0784     3.8265     0.9275 H       
@<TRIPOS>BOND
   1    1    2 1
   2    1    6 2
   3    1    7 1
   4    2    3 1
   5    2   31 1
   6    2   32 1
   7    3    4 1
   8    3   33 1
   9    3   34 1
  10    4    5 1
  11    4   35 1
  12    4   36 1
  13    5   20 1
  14    5   37 1
  15    5   38 1
  16    7   29 1
  17    8    9 1
  18    8   12 1
  19    9   10 1
  20    9   39 1
  21    9   40 1
  22   10   11 1
  23   11   12 ar
  24   11   13 ar
  25   12   16 ar
  26   13   14 ar
  27   13   41 1
  28   14   15 ar
  29   14   17 1
  30   15   16 ar
  31   15   18 1
  32   16   42 1
  33   17   19 1
  34   18   19 1
  35   18   21 1
  36   18   22 1
  37   19   43 1
  38   19   44 1
  39   20   21 am
  40   20   27 1
  41   21   28 2
  42   22   23 ar
  43   22   27 ar
  44   23   24 ar
  45   23   45 1
  46   24   25 ar
  47   24   46 1
  48   25   26 ar
  49   25   47 1
  50   26   27 ar
  51   26   48 1
  52   29   30 1
  53   29   49 1
  54   29   50 1
  55   30   51 1
  56   30   52 1
  57   30   53 1

#	End of record

