#	Name: ASD01230654
#	Creating user name:	WinNT
#	Creation time:	15. 06. 2019 19:14

#	Modifying user name:	WinNT
#	Modification time:	15. 06. 2019 19:14

#	Program:	/corina/corina34_cracker 3.40 0067  02.08.2006

@<TRIPOS>MOLECULE
ASD01230654
  46   49    0    0    0
SMALL
NO_CHARGES


@<TRIPOS>ATOM
   1 C1            -0.0144     1.2119     0.0087 C.2     
   2 O2             0.1987     0.1316     0.5248 O.2     
   3 C3             1.1151     2.0482    -0.4483 C.ar    
   4 C4             2.3869     1.8677     0.0987 C.ar    
   5 C5             3.4398     2.6550    -0.3345 C.ar    
   6 C6             3.2301     3.6209    -1.3101 C.ar    
   7 C7             1.9712     3.8011    -1.8529 C.ar    
   8 C8             0.9155     3.0183    -1.4330 C.ar    
   9 O9             4.6793     2.4829     0.1956 O.3     
  10 C10            5.7192     3.3298    -0.2979 C.3     
  11 C11           -1.3996     1.6845    -0.1665 C.ar    
  12 C12           -2.4544     0.7650    -0.1987 C.ar    
  13 C13           -3.7369     1.2034    -0.3606 C.ar    
  14 C14           -3.9971     2.5708    -0.4946 C.ar    
  15 C15           -2.9439     3.4900    -0.4625 C.ar    
  16 C16           -1.6614     3.0534    -0.2950 C.ar    
  17 S17           -5.1718     4.5003    -4.3246 S.o2    
  18 N18           -4.8788     3.7947    -2.8569 N.am    
  19 C19           -5.7990     3.7029    -1.9290 C.2     
  20 N20           -7.0824     4.1597    -2.0360 N.pl3   
  21 C21           -7.5980     4.8862    -3.1994 C.3     
  22 C22           -6.9782     4.3441    -4.4905 C.3     
  23 C23           -5.3853     3.0444    -0.6707 C.2     
  24 C24           -6.3147     2.8781     0.3370 C.2     
  25 C25           -7.6205     3.3405     0.1377 C.2     
  26 C26           -7.9678     3.9501    -1.0106 C.2     
  27 O27           -4.7972     5.8598    -4.1489 O.2     
  28 O28           -4.5051     3.6660    -5.2619 O.2     
  29 H29            2.5486     1.1164     0.8575 H       
  30 H30            4.0535     4.2339    -1.6458 H       
  31 H31            1.8148     4.5540    -2.6112 H       
  32 H32           -0.0655     3.1586    -1.8622 H       
  33 H33            5.8353     3.1752    -1.3706 H       
  34 H34            5.4609     4.3713    -0.1067 H       
  35 H35            6.6545     3.0887     0.2073 H       
  36 H36           -2.2535    -0.2912    -0.0959 H       
  37 H37           -4.5509     0.4940    -0.3854 H       
  38 H38           -3.1456     4.5459    -0.5661 H       
  39 H39           -0.8484     3.7638    -0.2661 H       
  40 H40           -8.6810     4.7706    -3.2443 H       
  41 H41           -7.3538     5.9438    -3.0999 H       
  42 H42           -7.3248     4.9284    -5.3429 H       
  43 H43           -7.2499     3.2967    -4.6219 H       
  44 H44           -6.0384     2.3983     1.2643 H       
  45 H45           -8.3584     3.2065     0.9149 H       
  46 H46           -8.9865     4.2889    -1.1291 H       
@<TRIPOS>BOND
   1    1    2 2
   2    1    3 1
   3    1   11 1
   4    3    4 ar
   5    3    8 ar
   6    4    5 ar
   7    4   29 1
   8    5    6 ar
   9    5    9 1
  10    6    7 ar
  11    6   30 1
  12    7    8 ar
  13    7   31 1
  14    8   32 1
  15    9   10 1
  16   10   33 1
  17   10   34 1
  18   10   35 1
  19   11   12 ar
  20   11   16 ar
  21   12   13 ar
  22   12   36 1
  23   13   14 ar
  24   13   37 1
  25   14   15 ar
  26   14   23 1
  27   15   16 ar
  28   15   38 1
  29   16   39 1
  30   17   18 am
  31   17   22 1
  32   17   27 2
  33   17   28 2
  34   18   19 2
  35   19   20 1
  36   19   23 1
  37   20   21 1
  38   20   26 1
  39   21   22 1
  40   21   40 1
  41   21   41 1
  42   22   42 1
  43   22   43 1
  44   23   24 2
  45   24   25 1
  46   24   44 1
  47   25   26 2
  48   25   45 1
  49   26   46 1

#	End of record

