#	Name: ASD04910109
#	Creating user name:	WinNT
#	Creation time:	15. 06. 2019 20:55

#	Modifying user name:	WinNT
#	Modification time:	15. 06. 2019 20:55

#	Program:	/corina/corina34_cracker 3.40 0067  02.08.2006

@<TRIPOS>MOLECULE
ASD04910109
  22   23    0    0    0
SMALL
NO_CHARGES


@<TRIPOS>ATOM
   1 C1            -0.0167     1.3822     0.0096 C.ar    
   2 C2             0.0021    -0.0041     0.0020 C.ar    
   3 C3             1.2263    -0.6661    -0.0133 C.ar    
   4 C4             2.3849     0.0910    -0.0203 C.ar    
   5 C5             2.2883     1.4765    -0.0120 C.ar    
   6 N6             1.1071     2.0720     0.0026 N.ar    
   7 O7            -1.1610    -0.7082     0.0098 O.3     
   8 C8             4.7283     1.7929    -0.1284 C.2     
   9 N9             5.5412     2.8133    -0.0952 N.2     
  10 C10            4.8308     3.9437     0.0349 C.2     
  11 C11            3.5257     3.6171     0.0848 C.2     
  12 N12            3.4539     2.2514    -0.0185 N.pl3   
  13 C13            5.3962     5.3385     0.1119 C.3     
  14 F14            6.7801     5.2925    -0.0880 F       
  15 F15            4.8085     6.1351    -0.8767 F       
  16 F16            5.1248     5.8828     1.3718 F       
  17 H17           -0.9627     1.9032     0.0169 H       
  18 H18            1.2711    -1.7451    -0.0191 H       
  19 H19            3.3520    -0.3896    -0.0318 H       
  20 H20           -1.5063    -0.9071    -0.8712 H       
  21 H21            5.0194     0.7579    -0.2307 H       
  22 H22            2.6948     4.2995     0.1866 H       
@<TRIPOS>BOND
   1    1    2 ar
   2    1    6 ar
   3    1   17 1
   4    2    3 ar
   5    2    7 1
   6    3    4 ar
   7    3   18 1
   8    4    5 ar
   9    4   19 1
  10    5    6 ar
  11    5   12 1
  12    7   20 1
  13    8    9 2
  14    8   12 1
  15    8   21 1
  16    9   10 1
  17   10   11 2
  18   10   13 1
  19   11   12 1
  20   11   22 1
  21   13   14 1
  22   13   15 1
  23   13   16 1

#	End of record

