#	Name: ASD00311011
#	Creating user name:	WinNT
#	Creation time:	15. 06. 2019 18:34

#	Modifying user name:	WinNT
#	Modification time:	15. 06. 2019 18:34

#	Program:	/corina/corina34_cracker 3.40 0067  02.08.2006

@<TRIPOS>MOLECULE
ASD00311011
  32   34    0    0    0
SMALL
NO_CHARGES


@<TRIPOS>ATOM
   1 C1            -0.0158     1.3141     0.0093 C.ar    
   2 N2             0.0021    -0.0041     0.0020 N.ar    
   3 C3             1.1288    -0.6885    -0.0124 C.ar    
   4 C4             2.3501    -0.0438    -0.0206 C.ar    
   5 C5             2.3788     1.3545    -0.0133 C.ar    
   6 C6             1.1595     2.0394     0.0019 C.ar    
   7 C7             3.6715     3.5076    -0.0136 C.2     
   8 C8             3.6653     2.0898    -0.0212 C.2     
   9 C9             3.6386     6.3649     0.0020 C.ar    
  10 C10            4.8521     5.6484    -0.0129 C.ar    
  11 C11            4.8457     4.1788    -0.0208 C.2     
  12 N12            3.6175     7.6719     0.0089 N.ar    
  13 C13            4.7439     8.3953     0.0020 C.ar    
  14 C14            6.0066     7.7501    -0.0131 C.ar    
  15 C15            6.0585     6.3467    -0.0207 C.ar    
  16 O16            4.7165     1.4768    -0.0341 O.2     
  17 C17            7.1815     8.5222    -0.0212 C.ar    
  18 C18            7.0938     9.8808    -0.0143 C.ar    
  19 C19            5.8539    10.5163     0.0005 C.ar    
  20 C20            4.6964     9.7993     0.0091 C.ar    
  21 H21           -0.9624     1.8340     0.0165 H       
  22 H22            1.0962    -1.7680    -0.0175 H       
  23 H23            3.2692    -0.6109    -0.0320 H       
  24 H24            1.1373     3.1192     0.0076 H       
  25 H25            2.7386     4.0517    -0.0022 H       
  26 H26            2.7050     5.8219     0.0034 H       
  27 H27            5.7785     3.6348    -0.0322 H       
  28 H28            7.0038     5.8246    -0.0318 H       
  29 H29            8.1480     8.0403    -0.0324 H       
  30 H30            7.9967    10.4734    -0.0202 H       
  31 H31            5.8103    11.5954     0.0061 H       
  32 H32            3.7441    10.3087     0.0207 H       
@<TRIPOS>BOND
   1    1    2 ar
   2    1    6 ar
   3    1   21 1
   4    2    3 ar
   5    3    4 ar
   6    3   22 1
   7    4    5 ar
   8    4   23 1
   9    5    6 ar
  10    5    8 1
  11    6   24 1
  12    7    8 1
  13    7   11 2
  14    7   25 1
  15    8   16 2
  16    9   10 ar
  17    9   12 ar
  18    9   26 1
  19   10   11 1
  20   10   15 ar
  21   11   27 1
  22   12   13 ar
  23   13   14 ar
  24   13   20 ar
  25   14   15 ar
  26   14   17 ar
  27   15   28 1
  28   17   18 ar
  29   17   29 1
  30   18   19 ar
  31   18   30 1
  32   19   20 ar
  33   19   31 1
  34   20   32 1

#	End of record

