#	Name: ASD01881846
#	Creating user name:	WinNT
#	Creation time:	15. 06. 2019 19:43

#	Modifying user name:	WinNT
#	Modification time:	15. 06. 2019 19:43

#	Program:	/corina/corina34_cracker 3.40 0067  02.08.2006

@<TRIPOS>MOLECULE
ASD01881846
  46   49    0    0    0
SMALL
NO_CHARGES


@<TRIPOS>ATOM
   1 N1            -0.4638     2.9782    -0.0837 N.pl3   
   2 N2            -0.6727     1.7314     0.1635 N.2     
   3 N3             0.4285     1.0860     0.3257 N.2     
   4 C4             1.4662     1.9350     0.1827 C.ar    
   5 C5             0.8935     3.1921    -0.0888 C.ar    
   6 C6             2.8565     1.8104     0.2477 C.ar    
   7 C7             3.6485     2.9232     0.0446 C.ar    
   8 C8             3.0698     4.1615    -0.2233 C.ar    
   9 C9             1.7111     4.2964    -0.2903 C.ar    
  10 O10            5.0022     2.8095     0.1068 O.3     
  11 C11            5.7639     3.9984    -0.1127 C.3     
  12 C12            7.2556     3.6758    -0.0040 C.3     
  13 N13            9.5123     4.6942     0.0530 N.3     
  14 C14            8.0691     4.9598    -0.1787 C.3     
  15 C15            7.9936     5.4503    -1.6406 C.3     
  16 C16            9.3988     6.0066    -1.9497 C.3     
  17 C17           10.2051     5.8054    -0.6487 C.3     
  18 C18            9.8252     4.7017     1.4883 C.3     
  19 C19           -1.4945     3.9912    -0.3242 C.3     
  20 C20           -1.8993     4.6323     1.0047 C.3     
  21 C21           -2.8846     5.8017     0.9538 C.3     
  22 C22           -3.3430     4.4372     1.4724 C.3     
  23 Br23           3.6471     0.1316     0.6117 Br      
  24 H24            3.7009     5.0238    -0.3798 H       
  25 H25            1.2737     5.2616    -0.4989 H       
  26 H26            5.5483     4.3897    -1.1070 H       
  27 H27            5.4979     4.7439     0.6367 H       
  28 H28            7.4636     3.2442     0.9750 H       
  29 H29            7.5307     2.9628    -0.7813 H       
  30 H30            7.7105     5.7317     0.5022 H       
  31 H31            7.7601     4.6199    -2.3069 H       
  32 H32            7.2452     6.2368    -1.7378 H       
  33 H33            9.8550     5.4493    -2.7679 H       
  34 H34            9.3401     7.0662    -2.1987 H       
  35 H35           10.1813     6.7112    -0.0428 H       
  36 H36           11.2338     5.5274    -0.8781 H       
  37 H37            9.3163     3.8699     1.9754 H       
  38 H38           10.9016     4.5999     1.6260 H       
  39 H39            9.4898     5.6408     1.9284 H       
  40 H40           -1.1018     4.7575    -0.9925 H       
  41 H41           -2.3655     3.5219    -0.7815 H       
  42 H42           -1.1222     4.6618     1.7685 H       
  43 H43           -2.7559     6.6004     1.6843 H       
  44 H44           -3.2444     6.1143    -0.0265 H       
  45 H45           -4.0043     3.8521     0.8333 H       
  46 H46           -3.5159     4.3382     2.5440 H       
@<TRIPOS>BOND
   1    1    2 1
   2    1    5 1
   3    1   19 1
   4    2    3 2
   5    3    4 1
   6    4    5 ar
   7    4    6 ar
   8    5    9 ar
   9    6    7 ar
  10    6   23 1
  11    7    8 ar
  12    7   10 1
  13    8    9 ar
  14    8   24 1
  15    9   25 1
  16   10   11 1
  17   11   12 1
  18   11   26 1
  19   11   27 1
  20   12   14 1
  21   12   28 1
  22   12   29 1
  23   13   14 1
  24   13   17 1
  25   13   18 1
  26   14   15 1
  27   14   30 1
  28   15   16 1
  29   15   31 1
  30   15   32 1
  31   16   17 1
  32   16   33 1
  33   16   34 1
  34   17   35 1
  35   17   36 1
  36   18   37 1
  37   18   38 1
  38   18   39 1
  39   19   20 1
  40   19   40 1
  41   19   41 1
  42   20   21 1
  43   20   22 1
  44   20   42 1
  45   21   22 1
  46   21   43 1
  47   21   44 1
  48   22   45 1
  49   22   46 1

#	End of record

