#	Name: ASD01870423
#	Creating user name:	WinNT
#	Creation time:	15. 06. 2019 19:39

#	Modifying user name:	WinNT
#	Modification time:	15. 06. 2019 19:39

#	Program:	/corina/corina34_cracker 3.40 0067  02.08.2006

@<TRIPOS>MOLECULE
ASD01870423
  53   57    0    0    0
SMALL
NO_CHARGES


@<TRIPOS>ATOM
   1 N1            -0.2941     2.0048    -0.3653 N.am    
   2 C2            -0.0628     0.5651    -0.1948 C.3     
   3 C3             0.6637     2.9408    -0.5165 C.2     
   4 C4             0.2823     4.3893    -0.6826 C.3     
   5 O5             1.8326     2.6175    -0.5190 O.2     
   6 C6             1.4877     5.3331    -0.8439 C.3     
   7 N7             0.6948     6.0035    -1.8926 N.am    
   8 C8            -0.0836     4.7721    -2.1281 C.3     
   9 S9             0.6833     7.5261    -2.5437 S.o2    
  10 C10            1.7998     7.5190    -3.9068 C.2     
  11 C11            3.1666     7.8112    -3.8525 C.2     
  12 O12           -0.6145     7.7195    -3.0891 O.2     
  13 O13            1.2508     8.3855    -1.5646 O.2     
  14 C14           -1.4348    -0.1294    -0.1292 C.3     
  15 C15           -2.4041     0.9243    -0.7547 C.3     
  16 C16           -1.7441     2.2574    -0.3501 C.3     
  17 C17           -1.4626    -1.2844    -1.1469 C.3     
  18 N18           -1.9549    -0.7441    -2.4255 N.3     
  19 C19           -2.1849     0.7059    -2.2679 C.3     
  20 C20           -1.0524    -0.9970    -3.4542 C.ar    
  21 C21           -0.3252    -2.1866    -3.4918 C.ar    
  22 C22            0.5591    -2.3988    -4.5284 C.ar    
  23 N23            0.7209    -1.4940    -5.4758 N.ar    
  24 C24            0.0517    -0.3563    -5.4756 C.ar    
  25 C25           -0.8559    -0.0700    -4.4777 C.ar    
  26 C26            1.4877     7.2242    -5.1900 C.2     
  27 N27            2.6158     7.3315    -5.9228 N.pl3   
  28 N28            3.6564     7.7010    -5.0607 N.2     
  29 C29            2.7325     7.0989    -7.3645 C.3     
  30 H30            0.5056     0.1800    -1.0414 H       
  31 H31            0.4857     0.3866     0.7301 H       
  32 H32           -0.4423     4.7256     0.0590 H       
  33 H33            1.6774     5.9568     0.0297 H       
  34 H34            2.3846     4.8401    -1.2189 H       
  35 H35            0.3516     4.1143    -2.8804 H       
  36 H36           -1.1486     4.9478    -2.2799 H       
  37 H37            3.7218     8.0811    -2.9663 H       
  38 H38           -1.7150    -0.4282     0.8809 H       
  39 H39           -3.4395     0.8270    -0.4280 H       
  40 H40           -2.0597     2.5450     0.6527 H       
  41 H41           -2.0022     3.0381    -1.0657 H       
  42 H42           -0.4576    -1.6855    -1.2779 H       
  43 H43           -2.1317    -2.0700    -0.7958 H       
  44 H44           -3.0707     1.0104    -2.8254 H       
  45 H45           -1.3134     1.2655    -2.6077 H       
  46 H46           -0.4526    -2.9309    -2.7197 H       
  47 H47            1.1267    -3.3168    -4.5655 H       
  48 H48            0.2139     0.3577    -6.2696 H       
  49 H49           -1.4004     0.8626    -4.4837 H       
  50 H50            0.5108     6.9516    -5.5612 H       
  51 H51            2.5525     8.0317    -7.8987 H       
  52 H52            3.7344     6.7361    -7.5941 H       
  53 H53            1.9974     6.3556    -7.6732 H       
@<TRIPOS>BOND
   1    1    2 1
   2    1    3 am
   3    1   16 1
   4    2   14 1
   5    2   30 1
   6    2   31 1
   7    3    4 1
   8    3    5 2
   9    4    6 1
  10    4    8 1
  11    4   32 1
  12    6    7 1
  13    6   33 1
  14    6   34 1
  15    7    8 1
  16    7    9 am
  17    8   35 1
  18    8   36 1
  19    9   10 1
  20    9   12 2
  21    9   13 2
  22   10   26 2
  23   10   11 1
  24   11   28 2
  25   11   37 1
  26   14   15 1
  27   14   17 1
  28   14   38 1
  29   15   16 1
  30   15   19 1
  31   15   39 1
  32   16   40 1
  33   16   41 1
  34   17   18 1
  35   17   42 1
  36   17   43 1
  37   18   19 1
  38   18   20 1
  39   19   44 1
  40   19   45 1
  41   20   21 ar
  42   20   25 ar
  43   21   22 ar
  44   21   46 1
  45   22   23 ar
  46   22   47 1
  47   23   24 ar
  48   24   25 ar
  49   24   48 1
  50   25   49 1
  51   26   27 1
  52   26   50 1
  53   27   28 1
  54   27   29 1
  55   29   51 1
  56   29   52 1
  57   29   53 1

#	End of record

