#	Name: ASD08150336
#	Creating user name:	WinNT
#	Creation time:	15. 06. 2019 21:15

#	Modifying user name:	WinNT
#	Modification time:	15. 06. 2019 21:15

#	Program:	/corina/corina34_cracker 3.40 0067  02.08.2006

@<TRIPOS>MOLECULE
ASD08150336
  89   96    0    0    0
SMALL
NO_CHARGES


@<TRIPOS>ATOM
   1 N1            -0.1713     0.5785     0.0991 N.am    
   2 C2             0.6755     0.8744    -0.9059 C.2     
   3 C3             1.8798     0.1607    -1.0714 C.2     
   4 C4             2.2037    -0.8407    -0.2141 C.2     
   5 C5             1.3153    -1.1543     0.8447 C.ar    
   6 C6             1.6033    -2.1831     1.7618 C.ar    
   7 N7             0.7819    -2.4703     2.7376 N.ar    
   8 C8            -0.3714    -1.8101     2.9227 C.ar    
   9 C9            -0.7422    -0.7593     2.0479 C.ar    
  10 C10            0.1244    -0.4243     0.9811 C.ar    
  11 C11           -1.9466    -0.0782     2.2488 C.ar    
  12 C12           -2.7670    -0.4400     3.3052 C.ar    
  13 C13           -2.3931    -1.4806     4.1670 C.ar    
  14 C14           -1.2248    -2.1523     3.9846 C.ar    
  15 O15            0.3964     1.7714    -1.6832 O.2     
  16 C16           -4.0463     0.2773     3.5255 C.ar    
  17 C17           -1.3596     1.3063     0.2453 C.ar    
  18 C18           -1.3821     2.4474     1.0372 C.ar    
  19 C19           -2.5525     3.1643     1.1813 C.ar    
  20 C20           -3.7083     2.7448     0.5343 C.ar    
  21 C21           -3.6856     1.6037    -0.2574 C.ar    
  22 C22           -2.5133     0.8900    -0.4059 C.ar    
  23 N23           -4.8940     3.4707     0.6806 N.3     
  24 C24           -5.0958     4.3833    -0.4527 C.3     
  25 C25           -4.9135     4.1953     1.9583 C.3     
  26 C26           -6.2943     4.8278     2.1620 C.3     
  27 N27           -6.6139     5.6426     0.9800 N.am    
  28 C28           -6.4841     5.0235    -0.3478 C.3     
  29 C29           -4.3372     1.4436     2.8001 C.ar    
  30 N30           -5.4581     2.0966     2.9735 N.ar    
  31 C31           -6.3816     1.6864     3.8494 C.ar    
  32 C32           -6.1617     0.5169     4.6201 C.ar    
  33 C33           -4.9670    -0.2026     4.4459 C.ar    
  34 C34           -7.5795     2.4016     4.0221 C.ar    
  35 C35           -8.5045     1.9649     4.9198 C.ar    
  36 C36           -8.2862     0.8153     5.6766 C.ar    
  37 C37           -7.1389     0.0958     5.5379 C.ar    
  38 C38           -7.0156     6.9225     1.1102 C.2     
  39 C39           -7.3380     7.7394    -0.1145 C.3     
  40 O40           -7.1176     7.4169     2.2129 O.2     
  41 N41           -7.6526     9.1175     0.2850 N.3     
  42 C42           -6.4924     9.7606     0.9161 C.3     
  43 C43           -8.8275     9.1551     1.1660 C.3     
  44 C44           -9.2307    10.6128     1.4123 C.3     
  45 N45           -8.0562    11.3447     1.9104 N.am    
  46 C46           -6.8000    11.2431     1.1522 C.3     
  47 C47           -8.1292    12.0891     3.0315 C.2     
  48 C48           -9.3953    12.0980     3.8489 C.3     
  49 O49           -7.1761    12.7518     3.3826 O.2     
  50 C50           -4.9392     1.1482    -0.9589 C.3     
  51 F51           -4.7060    -0.0852    -1.5765 F       
  52 F52           -5.9732     1.0145    -0.0261 F       
  53 F53           -5.3021     2.0924    -1.9253 F       
  54 H54            2.5468     0.4112    -1.8830 H       
  55 H55            3.1249    -1.3907    -0.3373 H       
  56 H56            2.5193    -2.7455     1.6572 H       
  57 H57           -2.2352     0.7241     1.5858 H       
  58 H58           -3.0415    -1.7524     4.9869 H       
  59 H59           -0.9525    -2.9516     4.6579 H       
  60 H60           -0.4838     2.7733     1.5404 H       
  61 H61           -2.5701     4.0513     1.7973 H       
  62 H62           -2.4945     0.0053    -1.0251 H       
  63 H63           -4.3336     5.1622    -0.4326 H       
  64 H64           -5.0220     3.8256    -1.3864 H       
  65 H65           -4.7075     3.5013     2.7732 H       
  66 H66           -4.1538     4.9768     1.9448 H       
  67 H67           -7.0424     4.0438     2.2795 H       
  68 H68           -6.2800     5.4602     3.0497 H       
  69 H69           -6.5953     5.7853    -1.1195 H       
  70 H70           -7.2505     4.2584    -0.4716 H       
  71 H71           -3.6187     1.8108     2.0821 H       
  72 H72           -4.7681    -1.0974     5.0170 H       
  73 H73           -7.7649     3.2950     3.4444 H       
  74 H74           -9.4228     2.5187     5.0479 H       
  75 H75           -9.0366     0.4913     6.3825 H       
  76 H76           -6.9808    -0.7936     6.1297 H       
  77 H77           -6.4790     7.7427    -0.7855 H       
  78 H78           -8.1967     7.3042    -0.6257 H       
  79 H79           -6.2823     9.2764     1.8698 H       
  80 H80           -5.6252     9.6687     0.2622 H       
  81 H81           -9.6537     8.6240     0.6934 H       
  82 H82           -8.5848     8.6793     2.1162 H       
  83 H83           -9.5728    11.0607     0.4793 H       
  84 H84          -10.0282    10.6517     2.1544 H       
  85 H85           -5.9904    11.6988     1.7222 H       
  86 H86           -6.9084    11.7516     0.1942 H       
  87 H87           -9.3204    11.3550     4.6429 H       
  88 H88           -9.5374    13.0856     4.2878 H       
  89 H89          -10.2437    11.8600     3.2073 H       
@<TRIPOS>BOND
   1    1    2 am
   2    1   10 1
   3    1   17 1
   4    2    3 1
   5    2   15 2
   6    3    4 2
   7    3   54 1
   8    4    5 1
   9    4   55 1
  10    5    6 ar
  11    5   10 ar
  12    6    7 ar
  13    6   56 1
  14    7    8 ar
  15    8    9 ar
  16    8   14 ar
  17    9   10 ar
  18    9   11 ar
  19   11   12 ar
  20   11   57 1
  21   12   13 ar
  22   12   16 1
  23   13   14 ar
  24   13   58 1
  25   14   59 1
  26   16   29 ar
  27   16   33 ar
  28   17   18 ar
  29   17   22 ar
  30   18   19 ar
  31   18   60 1
  32   19   20 ar
  33   19   61 1
  34   20   21 ar
  35   20   23 1
  36   21   22 ar
  37   21   50 1
  38   22   62 1
  39   23   24 1
  40   23   25 1
  41   24   28 1
  42   24   63 1
  43   24   64 1
  44   25   26 1
  45   25   65 1
  46   25   66 1
  47   26   27 1
  48   26   67 1
  49   26   68 1
  50   27   28 1
  51   27   38 am
  52   28   69 1
  53   28   70 1
  54   29   30 ar
  55   29   71 1
  56   30   31 ar
  57   31   32 ar
  58   31   34 ar
  59   32   33 ar
  60   32   37 ar
  61   33   72 1
  62   34   35 ar
  63   34   73 1
  64   35   36 ar
  65   35   74 1
  66   36   37 ar
  67   36   75 1
  68   37   76 1
  69   38   39 1
  70   38   40 2
  71   39   41 1
  72   39   77 1
  73   39   78 1
  74   41   42 1
  75   41   43 1
  76   42   46 1
  77   42   79 1
  78   42   80 1
  79   43   44 1
  80   43   81 1
  81   43   82 1
  82   44   45 1
  83   44   83 1
  84   44   84 1
  85   45   46 1
  86   45   47 am
  87   46   85 1
  88   46   86 1
  89   47   48 1
  90   47   49 2
  91   48   87 1
  92   48   88 1
  93   48   89 1
  94   50   51 1
  95   50   52 1
  96   50   53 1

#	End of record

