#	Name: ASD01814754
#	Creating user name:	WinNT
#	Creation time:	15. 06. 2019 19:32

#	Modifying user name:	WinNT
#	Modification time:	15. 06. 2019 19:32

#	Program:	/corina/corina34_cracker 3.40 0067  02.08.2006

@<TRIPOS>MOLECULE
ASD01814754
  51   54    0    0    0
SMALL
NO_CHARGES


@<TRIPOS>ATOM
   1 C1            -0.8241     0.8623    -0.1674 C.2     
   2 C2            -0.5418    -0.5071    -0.0528 C.2     
   3 C3             0.7547    -0.9263    -0.0336 C.2     
   4 C4             1.7890     0.0224    -0.1290 C.2     
   5 N5             1.4846     1.3542    -0.2396 N.am    
   6 C6             0.1810     1.7600    -0.2580 C.2     
   7 C7             3.1208    -0.4023    -0.1097 C.2     
   8 C8             4.1378     0.5253    -0.2031 C.2     
   9 C9             3.8142     1.8831    -0.3162 C.2     
  10 C10            2.4648     2.2748    -0.3321 C.2     
  11 O11            2.1781     3.4576    -0.4310 O.2     
  12 C12            4.8832     2.8959    -0.4176 C.2     
  13 O13            4.9666     3.8903     0.5044 O.3     
  14 C14            5.7679     2.8349    -1.4151 C.2     
  15 C15            3.4446    -1.8689     0.0134 C.3     
  16 N16            3.6496    -2.4390    -1.3249 N.3     
  17 C17            4.1960    -3.7994    -1.2393 C.3     
  18 C18            4.5321    -4.3048    -2.6442 C.3     
  19 C19            3.2632    -4.2974    -3.5011 C.3     
  20 C20            2.6875    -2.8789    -3.5342 C.3     
  21 C21            2.4049    -2.4148    -2.1036 C.3     
  22 C22            3.5994    -4.7373    -4.9027 C.ar    
  23 N23            3.4896    -3.8805    -5.8987 N.ar    
  24 C24            3.7728    -4.2208    -7.1410 C.ar    
  25 C25            4.1983    -5.5000    -7.4444 C.ar    
  26 C26            4.3263    -6.4297    -6.4237 C.ar    
  27 C27            4.0252    -6.0338    -5.1288 C.ar    
  28 Br28           4.1805    -7.2549    -3.6934 Br      
  29 C29            2.2717    -5.2172    -2.9200 C.1     
  30 N30            1.5066    -5.9271    -2.4715 N.1     
  31 H31           -1.8498     1.1999    -0.1877 H       
  32 H32           -1.3462    -1.2240     0.0199 H       
  33 H33            0.9862    -1.9775     0.0545 H       
  34 H34           -0.0491     2.8115    -0.3456 H       
  35 H35            5.1702     0.2085    -0.1888 H       
  36 H36            5.6982     4.5048     0.3551 H       
  37 H37            5.7514     2.0010    -2.1012 H       
  38 H38            6.5003     3.6193    -1.5361 H       
  39 H39            4.3525    -1.9923     0.6038 H       
  40 H40            2.6188    -2.3833     0.5048 H       
  41 H41            5.1003    -3.7899    -0.6308 H       
  42 H42            3.4581    -4.4591    -0.7828 H       
  43 H43            5.2802    -3.6535    -3.0960 H       
  44 H44            4.9230    -5.3204    -2.5816 H       
  45 H45            3.4065    -2.2051    -4.0001 H       
  46 H46            1.7605    -2.8757    -4.1077 H       
  47 H47            1.6753    -3.0810    -1.6431 H       
  48 H48            2.0082    -1.3997    -2.1228 H       
  49 H49            3.6707    -3.4911    -7.9307 H       
  50 H50            4.4280    -5.7724    -8.4640 H       
  51 H51            4.6564    -7.4368    -6.6313 H       
@<TRIPOS>BOND
   1    1    2 1
   2    1    6 2
   3    1   31 1
   4    2    3 2
   5    2   32 1
   6    3    4 1
   7    3   33 1
   8    4    5 1
   9    4    7 2
  10    5    6 1
  11    5   10 am
  12    6   34 1
  13    7   15 1
  14    7    8 1
  15    8    9 2
  16    8   35 1
  17    9   10 1
  18    9   12 1
  19   10   11 2
  20   12   13 1
  21   12   14 2
  22   13   36 1
  23   14   37 1
  24   14   38 1
  25   15   16 1
  26   15   39 1
  27   15   40 1
  28   16   17 1
  29   16   21 1
  30   17   18 1
  31   17   41 1
  32   17   42 1
  33   18   19 1
  34   18   43 1
  35   18   44 1
  36   19   20 1
  37   19   22 1
  38   19   29 1
  39   20   21 1
  40   20   45 1
  41   20   46 1
  42   21   47 1
  43   21   48 1
  44   22   23 ar
  45   22   27 ar
  46   23   24 ar
  47   24   25 ar
  48   24   49 1
  49   25   26 ar
  50   25   50 1
  51   26   27 ar
  52   26   51 1
  53   27   28 1
  54   29   30 3

#	End of record

