#	Name: ASD01202001
#	Creating user name:	WinNT
#	Creation time:	15. 06. 2019 19:09

#	Modifying user name:	WinNT
#	Modification time:	15. 06. 2019 19:09

#	Program:	/corina/corina34_cracker 3.40 0067  02.08.2006

@<TRIPOS>MOLECULE
ASD01202001
  38   40    0    0    0
SMALL
NO_CHARGES


@<TRIPOS>ATOM
   1 C1            -0.0180     1.4737     0.0101 C.ar    
   2 C2             0.0021    -0.0041     0.0020 C.2     
   3 O3             1.0629    -0.5975    -0.0113 O.2     
   4 N4            -1.1558    -0.6938     0.0094 N.am    
   5 C5            -1.1370    -2.0826     0.0017 C.2     
   6 N6            -2.1895    -2.8395     0.0026 N.2     
   7 S7             0.2775    -3.0427    -0.0175 S.3     
   8 C8            -1.9874    -4.1438    -0.0055 C.2     
   9 C9            -0.7031    -4.5062    -0.0156 C.2     
  10 H10           -2.0023    -0.2203     0.0200 H       
  11 C11           -3.1156    -5.1429    -0.0057 C.3     
  12 C12           -3.4204    -5.5677    -1.4436 C.3     
  13 C13           -4.5658    -6.5820    -1.4438 C.3     
  14 C14           -4.1607    -7.8090    -0.6244 C.3     
  15 C15           -3.8560    -7.3841     0.8135 C.3     
  16 C16           -2.7105    -6.3698     0.8137 C.3     
  17 C17            1.1795     2.1912     0.0026 C.ar    
  18 C18            1.1537     3.5704     0.0097 C.ar    
  19 C19           -0.0555     4.2427     0.0244 C.ar    
  20 C20           -1.2461     3.5378     0.0320 C.ar    
  21 C21           -1.2345     2.1583     0.0196 C.ar    
  22 H22           -0.3301    -5.5197    -0.0247 H       
  23 H23           -4.0032    -4.6887     0.4348 H       
  24 H24           -3.7090    -4.6936    -2.0273 H       
  25 H25           -2.5328    -6.0219    -1.8841 H       
  26 H26           -5.4534    -6.1278    -1.0033 H       
  27 H27           -4.7829    -6.8847    -2.4682 H       
  28 H28           -4.9768    -8.5316    -0.6246 H       
  29 H29           -3.2732    -8.2632    -1.0649 H       
  30 H30           -4.7436    -6.9299     1.2540 H       
  31 H31           -3.5674    -8.2582     1.3972 H       
  32 H32           -1.8230    -6.8240     0.3732 H       
  33 H33           -2.4934    -6.0671     1.8381 H       
  34 H34            2.1241     1.6676    -0.0085 H       
  35 H35            2.0794     4.1267     0.0042 H       
  36 H36           -0.0702     5.3226     0.0303 H       
  37 H37           -2.1865     4.0686     0.0438 H       
  38 H38           -2.1645     1.6092     0.0252 H       
@<TRIPOS>BOND
   1    1    2 1
   2    1   17 ar
   3    1   21 ar
   4    2    3 2
   5    2    4 am
   6    4    5 1
   7    4   10 1
   8    5    7 1
   9    5    6 2
  10    6    8 1
  11    7    9 1
  12    8    9 2
  13    8   11 1
  14    9   22 1
  15   11   12 1
  16   11   16 1
  17   11   23 1
  18   12   13 1
  19   12   24 1
  20   12   25 1
  21   13   14 1
  22   13   26 1
  23   13   27 1
  24   14   15 1
  25   14   28 1
  26   14   29 1
  27   15   16 1
  28   15   30 1
  29   15   31 1
  30   16   32 1
  31   16   33 1
  32   17   18 ar
  33   17   34 1
  34   18   19 ar
  35   18   35 1
  36   19   20 ar
  37   19   36 1
  38   20   21 ar
  39   20   37 1
  40   21   38 1

#	End of record

