#	Name: ASD00170367
#	Creating user name:	WinNT
#	Creation time:	15. 06. 2019 18:32

#	Modifying user name:	WinNT
#	Modification time:	15. 06. 2019 18:32

#	Program:	/corina/corina34_cracker 3.40 0067  02.08.2006

@<TRIPOS>MOLECULE
ASD00170367
  39   41    0    0    0
SMALL
NO_CHARGES


@<TRIPOS>ATOM
   1 I1             0.0000     0.0000     0.0000 I       
   2 H2             0.0000     1.7100     0.0000 H       
   3 N3             9.6746    18.4691     5.6672 N.pl3   
   4 C4             9.6918    17.0858     5.7424 C.2     
   5 N5             8.6519    16.3339     5.8747 N.2     
   6 C6             8.8463    14.9977     5.9318 C.2     
   7 C7            10.1402    14.6370     5.8391 C.2     
   8 C8            10.2316    13.1284     5.9152 C.3     
   9 C9             8.8128    12.6433     6.0660 C.ar    
  10 C10            8.0018    13.7707     6.0739 C.ar    
  11 C11            6.6198    13.6257     6.2029 C.ar    
  12 C12            6.0695    12.3654     6.3216 C.ar    
  13 C13            6.8805    11.2456     6.3138 C.ar    
  14 C14            8.2569    11.3825     6.1848 C.ar    
  15 O15            9.0543    10.2817     6.1769 O.3     
  16 C16            9.5876     9.9069     7.3508 C.2     
  17 O17            9.4211    10.5879     8.3348 O.2     
  18 C18           10.3938     8.6369     7.4409 C.3     
  19 C19           11.6881     8.7555     6.5985 C.3     
  20 C20           12.6231     7.7127     7.2598 C.3     
  21 C21           12.3165     7.8316     8.7670 C.3     
  22 C22           10.8990     8.4193     8.8821 C.3     
  23 S23           11.1344    16.0823     5.6646 S.3     
  24 H24           10.5049    18.9595     5.5631 H       
  25 H25            8.8317    18.9469     5.7146 H       
  26 H26           10.6705    12.7309     5.0000 H       
  27 H27           10.8256    12.8301     6.7791 H       
  28 H28            5.9824    14.4975     6.2103 H       
  29 H29            5.0000    12.2535     6.4215 H       
  30 H30            6.4430    10.2626     6.4078 H       
  31 H31            9.7991     7.7845     7.1123 H       
  32 H32           11.4963     8.4969     5.5571 H       
  33 H33           12.1099     9.7575     6.6774 H       
  34 H34           12.3904     6.7100     6.9011 H       
  35 H35           13.6669     7.9568     7.0625 H       
  36 H36           12.3517     6.8474     9.2340 H       
  37 H37           13.0364     8.4972     9.2431 H       
  38 H38           10.9311     9.3701     9.4141 H       
  39 H39           10.2463     7.7202     9.4050 H       
@<TRIPOS>BOND
   1    1    2 1
   2    3    4 1
   3    3   24 1
   4    3   25 1
   5    4   23 1
   6    4    5 2
   7    5    6 1
   8    6   10 1
   9    6    7 2
  10    7    8 1
  11    7   23 1
  12    8    9 1
  13    8   26 1
  14    8   27 1
  15    9   14 ar
  16    9   10 ar
  17   10   11 ar
  18   11   12 ar
  19   11   28 1
  20   12   13 ar
  21   12   29 1
  22   13   14 ar
  23   13   30 1
  24   14   15 1
  25   15   16 1
  26   16   17 2
  27   16   18 1
  28   18   22 1
  29   18   19 1
  30   18   31 1
  31   19   20 1
  32   19   32 1
  33   19   33 1
  34   20   21 1
  35   20   34 1
  36   20   35 1
  37   21   22 1
  38   21   36 1
  39   21   37 1
  40   22   38 1
  41   22   39 1

#	End of record

