#	Name: ASD01812851
#	Creating user name:	WinNT
#	Creation time:	15. 06. 2019 19:29

#	Modifying user name:	WinNT
#	Modification time:	15. 06. 2019 19:29

#	Program:	/corina/corina34_cracker 3.40 0067  02.08.2006

@<TRIPOS>MOLECULE
ASD01812851
  51   55    0    0    0
SMALL
NO_CHARGES


@<TRIPOS>ATOM
   1 N1            -0.0158     1.3146     0.0093 N.ar    
   2 C2             0.0021    -0.0041     0.0020 C.ar    
   3 C3             1.1989    -0.7034    -0.0127 C.ar    
   4 C4             2.3830    -0.0016    -0.0202 C.ar    
   5 C5             2.3451     1.3976    -0.0128 C.ar    
   6 C6             1.0957     2.0332     0.0025 C.ar    
   7 C7             3.8375    -0.3894    -0.0363 C.3     
   8 N8             4.5957     0.8679    -0.0373 N.am    
   9 C9             3.7284     1.8957    -0.0237 C.2     
  10 C10            6.0561     0.9838    -0.0509 C.3     
  11 C11            6.5430     1.0307    -1.4762 C.ar    
  12 C12            6.6709     2.2477    -2.1211 C.ar    
  13 C13            7.1165     2.2964    -3.4265 C.ar    
  14 C14            7.4376     1.1168    -4.0947 C.ar    
  15 C15            7.3070    -0.1063    -3.4404 C.ar    
  16 C16            6.8659    -0.1431    -2.1331 C.ar    
  17 O17            1.0259     3.3855     0.0104 O.3     
  18 O18            4.0434     3.0701    -0.0209 O.2     
  19 C19           -0.2049     3.9605     0.0253 C.ar    
  20 C20           -0.8219     4.2477     1.2382 C.ar    
  21 C21           -2.0720     4.8312     1.2571 C.ar    
  22 C22           -2.7180     5.1341     0.0556 C.ar    
  23 C23           -2.0948     4.8446    -1.1612 C.ar    
  24 C24           -0.8425     4.2658    -1.1725 C.ar    
  25 C25           -4.0157     5.7393     0.0712 C.1     
  26 F26           -0.1966     3.9545     2.3993 F       
  27 N27            8.5471     1.8595    -7.4881 N.pl3   
  28 C28            8.8605     2.7576    -8.6023 C.3     
  29 N29           -5.0452     6.2195     0.0836 N.1     
  30 N30            8.0829     2.2480    -6.2249 N.2     
  31 C31            7.9168     1.1629    -5.4987 C.2     
  32 C32            8.2740     0.0533    -6.2892 C.2     
  33 C33            8.6500     0.5132    -7.5025 C.2     
  34 F34           -0.2369     3.9906    -2.3484 F       
  35 H35           -0.9309    -0.5480     0.0080 H       
  36 H36            1.2023    -1.7834    -0.0178 H       
  37 H37            4.0797    -0.9725     0.8521 H       
  38 H38            4.0624    -0.9635    -0.9351 H       
  39 H39            6.3529     1.8971     0.4647 H       
  40 H40            6.4936     0.1227     0.4544 H       
  41 H41            6.4214     3.1614    -1.6022 H       
  42 H42            7.2156     3.2471    -3.9292 H       
  43 H43            7.5542    -1.0237    -3.9539 H       
  44 H44            6.7684    -1.0903    -1.6235 H       
  45 H45           -2.5508     5.0532     2.1993 H       
  46 H46           -2.5914     5.0770    -2.0917 H       
  47 H47            9.9077     3.0550    -8.5458 H       
  48 H48            8.6795     2.2427    -9.5459 H       
  49 H49            8.2277     3.6431    -8.5444 H       
  50 H50            8.2480    -0.9816    -5.9814 H       
  51 H51            8.9809    -0.0895    -8.3353 H       
@<TRIPOS>BOND
   1    1    2 ar
   2    1    6 ar
   3    2    3 ar
   4    2   35 1
   5    3    4 ar
   6    3   36 1
   7    4    7 1
   8    4    5 ar
   9    5    6 ar
  10    5    9 1
  11    6   17 1
  12    7    8 1
  13    7   37 1
  14    7   38 1
  15    8    9 am
  16    8   10 1
  17    9   18 2
  18   10   11 1
  19   10   39 1
  20   10   40 1
  21   11   12 ar
  22   11   16 ar
  23   12   13 ar
  24   12   41 1
  25   13   14 ar
  26   13   42 1
  27   14   15 ar
  28   14   31 1
  29   15   16 ar
  30   15   43 1
  31   16   44 1
  32   17   19 1
  33   19   20 ar
  34   19   24 ar
  35   20   21 ar
  36   20   26 1
  37   21   22 ar
  38   21   45 1
  39   22   23 ar
  40   22   25 1
  41   23   24 ar
  42   23   46 1
  43   24   34 1
  44   25   29 3
  45   27   28 1
  46   27   30 1
  47   27   33 1
  48   28   47 1
  49   28   48 1
  50   28   49 1
  51   30   31 2
  52   31   32 1
  53   32   33 2
  54   32   50 1
  55   33   51 1

#	End of record

