#	Name: ASD01883948
#	Creating user name:	WinNT
#	Creation time:	15. 06. 2019 19:47

#	Modifying user name:	WinNT
#	Modification time:	15. 06. 2019 19:47

#	Program:	/corina/corina34_cracker 3.40 0067  02.08.2006

@<TRIPOS>MOLECULE
ASD01883948
  58   62    0    0    0
SMALL
NO_CHARGES


@<TRIPOS>ATOM
   1 F1             0.2171    -0.2277     0.3996 F       
   2 C2            -0.0610     1.1134     0.1145 C.3     
   3 F3             1.1335     1.7905    -0.1535 F       
   4 F4            -0.9003     1.1885    -1.0022 F       
   5 C5            -0.7431     1.7477     1.2991 C.2     
   6 C6            -0.0218     2.1187     2.3910 C.2     
   7 C7             1.4685     1.8975     2.4240 C.3     
   8 N8             2.1561     3.1364     2.0366 N.3     
   9 C9             3.6141     2.9579     2.0574 C.3     
  10 H10            3.8860     2.2834     2.8694 H       
  11 C11            4.0742     2.3634     0.7249 C.3     
  12 C12            3.6926     3.3101    -0.4148 C.3     
  13 C13            4.3693     4.6654    -0.2003 C.3     
  14 H14            5.4511     4.5329    -0.1848 H       
  15 C15            3.9092     5.2599     1.1323 C.3     
  16 C16            4.2909     4.3132     2.2720 C.3     
  17 C17            3.9934     5.5979    -1.3229 C.ar    
  18 C18            2.6669     5.9224    -1.5369 C.ar    
  19 C19            2.3221     6.7778    -2.5667 C.ar    
  20 C20            3.3039     7.3090    -3.3821 C.ar    
  21 C21            4.6305     6.9851    -3.1674 C.ar    
  22 C22            4.9757     6.1332    -2.1350 C.ar    
  23 C23           -0.6717     2.7097     3.4882 C.2     
  24 C24           -2.0060     2.9101     3.4639 C.2     
  25 N25           -2.7416     2.5426     2.3759 N.pl3   
  26 C26           -4.0652     2.6146     2.0689 C.2     
  27 C27           -5.1541     3.1769     2.9460 C.3     
  28 C28           -5.3169     4.6715     2.6622 C.3     
  29 C29           -6.6539     5.1392     2.0839 C.3     
  30 C30           -6.2972     5.4542     3.5380 C.3     
  31 N31           -4.2200     2.1072     0.8732 N.2     
  32 N32           -3.0868     1.7194     0.4029 N.2     
  33 C33           -2.1338     1.9686     1.2862 C.2     
  34 H34            1.7714     1.6136     3.4318 H       
  35 H35            1.7332     1.1019     1.7274 H       
  36 H36            1.8438     3.4556     1.1318 H       
  37 H37            5.1560     2.2309     0.7403 H       
  38 H38            3.5921     1.3978     0.5720 H       
  39 H39            4.0204     2.8865    -1.3642 H       
  40 H40            2.6108     3.4425    -0.4303 H       
  41 H41            4.3914     6.2255     1.2851 H       
  42 H42            2.8274     5.3924     1.1168 H       
  43 H43            3.9631     4.7368     3.2213 H       
  44 H44            5.3727     4.1807     2.2875 H       
  45 H45            1.8998     5.5074    -0.8999 H       
  46 H46            1.2856     7.0308    -2.7344 H       
  47 H47            3.0344     7.9767    -4.1870 H       
  48 H48            5.3975     7.3999    -3.8047 H       
  49 H49            6.0125     5.8831    -1.9650 H       
  50 H50           -0.1001     3.0047     4.3558 H       
  51 H51           -2.4952     3.3647     4.3127 H       
  52 H52           -6.0919     2.6628     2.7356 H       
  53 H53           -4.8878     3.0328     3.9932 H       
  54 H54           -4.4162     5.1877     2.3298 H       
  55 H55           -6.6331     5.9632     1.3708 H       
  56 H56           -7.4176     4.3821     1.9057 H       
  57 H57           -6.8262     4.9044     4.3165 H       
  58 H58           -6.0417     6.4855     3.7815 H       
@<TRIPOS>BOND
   1    1    2 1
   2    2    3 1
   3    2    4 1
   4    2    5 1
   5    5   33 1
   6    5    6 2
   7    6    7 1
   8    6   23 1
   9    7    8 1
  10    7   34 1
  11    7   35 1
  12    8    9 1
  13    8   36 1
  14    9   10 1
  15    9   16 1
  16    9   11 1
  17   11   12 1
  18   11   37 1
  19   11   38 1
  20   12   13 1
  21   12   39 1
  22   12   40 1
  23   13   14 1
  24   13   15 1
  25   13   17 1
  26   15   16 1
  27   15   41 1
  28   15   42 1
  29   16   43 1
  30   16   44 1
  31   17   22 ar
  32   17   18 ar
  33   18   19 ar
  34   18   45 1
  35   19   20 ar
  36   19   46 1
  37   20   21 ar
  38   20   47 1
  39   21   22 ar
  40   21   48 1
  41   22   49 1
  42   23   24 2
  43   23   50 1
  44   24   25 1
  45   24   51 1
  46   25   33 1
  47   25   26 1
  48   26   27 1
  49   26   31 2
  50   27   28 1
  51   27   52 1
  52   27   53 1
  53   28   30 1
  54   28   29 1
  55   28   54 1
  56   29   30 1
  57   29   55 1
  58   29   56 1
  59   30   57 1
  60   30   58 1
  61   31   32 1
  62   32   33 2

#	End of record

