#	Name: ASD03240518
#	Creating user name:	WinNT
#	Creation time:	15. 06. 2019 20:35

#	Modifying user name:	WinNT
#	Modification time:	15. 06. 2019 20:35

#	Program:	/corina/corina34_cracker 3.40 0067  02.08.2006

@<TRIPOS>MOLECULE
ASD03240518
  40   42    0    0    0
SMALL
NO_CHARGES


@<TRIPOS>ATOM
   1 C1            -0.0167     1.3792     0.0096 C.ar    
   2 C2             0.0021    -0.0041     0.0020 C.ar    
   3 C3             1.1675     2.0878     0.0021 C.ar    
   4 C4             2.3833     1.4077    -0.0131 C.ar    
   5 C5             2.3965     0.0150    -0.0207 C.ar    
   6 C6             1.2061    -0.6841    -0.0127 C.ar    
   7 C7             3.6605     2.1649    -0.0217 C.2     
   8 C8             3.7927     3.5228    -0.0162 C.2     
   9 N9             5.1113     3.8042    -0.0271 N.pl3   
  10 N10            5.8167     2.5949    -0.0397 N.2     
  11 C11            4.9558     1.6119    -0.0309 C.2     
  12 C12            1.2188    -2.1911    -0.0208 C.3     
  13 C13            0.5143    -2.7138     1.2327 C.3     
  14 C14            0.6339    -4.2151     1.2869 C.ar    
  15 C15            1.7094    -4.8000     1.9287 C.ar    
  16 C16            1.8192    -6.1771     1.9784 C.ar    
  17 C17            0.8531    -6.9693     1.3868 C.ar    
  18 C18           -0.2230    -6.3843     0.7458 C.ar    
  19 C19           -0.3349    -5.0073     0.6998 C.ar    
  20 C20            0.4895    -2.7004    -1.2657 C.3     
  21 N21            1.2330    -2.2990    -2.4673 N.3     
  22 H22           -0.9598     1.9054     0.0169 H       
  23 H23           -0.9269    -0.5548     0.0079 H       
  24 H24            1.1518     3.1677     0.0077 H       
  25 H25            3.3363    -0.5171    -0.0325 H       
  26 H26            2.9871     4.2420    -0.0051 H       
  27 H27            5.5034     4.6914    -0.0267 H       
  28 H28            5.1957     0.5589    -0.0369 H       
  29 H29            2.2495    -2.5457    -0.0329 H       
  30 H30            0.9789    -2.2801     2.1182 H       
  31 H31           -0.5387    -2.4341     1.2009 H       
  32 H32            2.4642    -4.1811     2.3910 H       
  33 H33            2.6599    -6.6341     2.4793 H       
  34 H34            0.9392    -8.0451     1.4250 H       
  35 H35           -0.9776    -7.0032     0.2832 H       
  36 H36           -1.1756    -4.5503     0.1990 H       
  37 H37            0.4209    -3.7876    -1.2271 H       
  38 H38           -0.5130    -2.2740    -1.2994 H       
  39 H39            0.7713    -2.6239    -3.3036 H       
  40 H40            1.3662    -1.2992    -2.4930 H       
@<TRIPOS>BOND
   1    1    2 ar
   2    1    3 ar
   3    1   22 1
   4    2    6 ar
   5    2   23 1
   6    3    4 ar
   7    3   24 1
   8    4    5 ar
   9    4    7 1
  10    5    6 ar
  11    5   25 1
  12    6   12 1
  13    7    8 2
  14    7   11 1
  15    8    9 1
  16    8   26 1
  17    9   10 1
  18    9   27 1
  19   10   11 2
  20   11   28 1
  21   12   13 1
  22   12   20 1
  23   12   29 1
  24   13   14 1
  25   13   30 1
  26   13   31 1
  27   14   15 ar
  28   14   19 ar
  29   15   16 ar
  30   15   32 1
  31   16   17 ar
  32   16   33 1
  33   17   18 ar
  34   17   34 1
  35   18   19 ar
  36   18   35 1
  37   19   36 1
  38   20   21 1
  39   20   37 1
  40   20   38 1
  41   21   39 1
  42   21   40 1

#	End of record

