#	Name: ASD03930065
#	Creating user name:	WinNT
#	Creation time:	15. 06. 2019 20:47

#	Modifying user name:	WinNT
#	Modification time:	15. 06. 2019 20:47

#	Program:	/corina/corina34_cracker 3.40 0067  02.08.2006

@<TRIPOS>MOLECULE
ASD03930065
  34   37    0    0    0
SMALL
NO_CHARGES


@<TRIPOS>ATOM
   1 C1            -0.0167     1.3840     0.0097 C.ar    
   2 C2             0.0021    -0.0041     0.0020 C.ar    
   3 C3             1.1983    -0.7041    -0.0030 C.ar    
   4 C4             2.4003    -0.0350    -0.0013 C.ar    
   5 C5             2.3887     1.3773    -0.0165 C.ar    
   6 C6             1.2029     2.0914     0.0018 C.ar    
   7 C7             3.7016    -0.7848     0.0474 C.3     
   8 N8             4.7949    -0.0814    -0.6291 N.am    
   9 S9             5.1758     1.4737    -0.1443 S.o2    
  10 C10            3.5729     2.2501    -0.0724 C.2     
  11 S11            1.5569     3.8133     0.0072 S.3     
  12 C12            3.2881     3.5305    -0.0569 C.2     
  13 O13            5.6615     1.3902     1.1885 O.2     
  14 O14            5.8892     2.0828    -1.2117 O.2     
  15 C15            5.5413    -0.7289    -1.7107 C.3     
  16 C16           -3.7152     3.4805     0.0389 C.ar    
  17 C17           -3.5003     2.4753    -0.8868 C.ar    
  18 C18           -2.3018     1.7913    -0.9009 C.ar    
  19 C19           -1.3066     2.1153     0.0198 C.ar    
  20 C20           -1.5287     3.1292     0.9502 C.ar    
  21 C21           -2.7313     3.8061     0.9552 C.ar    
  22 H22           -0.9312    -0.5476     0.0003 H       
  23 H23            1.1867    -1.7841    -0.0078 H       
  24 H24            3.9775    -0.9411     1.0902 H       
  25 H25            3.5641    -1.7570    -0.4260 H       
  26 H26            4.0293     4.3157    -0.0806 H       
  27 H27            5.0599    -0.5128    -2.6645 H       
  28 H28            6.5629    -0.3491    -1.7251 H       
  29 H29            5.5566    -1.8064    -1.5472 H       
  30 H30           -4.6531     4.0160     0.0436 H       
  31 H31           -4.2720     2.2254    -1.5998 H       
  32 H32           -2.1355     1.0061    -1.6236 H       
  33 H33           -0.7613     3.3842     1.6661 H       
  34 H34           -2.9045     4.5918     1.6757 H       
@<TRIPOS>BOND
   1    1    2 ar
   2    1    6 ar
   3    1   19 1
   4    2    3 ar
   5    2   22 1
   6    3    4 ar
   7    3   23 1
   8    4    5 ar
   9    4    7 1
  10    5    6 ar
  11    5   10 1
  12    6   11 1
  13    7    8 1
  14    7   24 1
  15    7   25 1
  16    8    9 am
  17    8   15 1
  18    9   10 1
  19    9   13 2
  20    9   14 2
  21   10   12 2
  22   11   12 1
  23   12   26 1
  24   15   27 1
  25   15   28 1
  26   15   29 1
  27   16   17 ar
  28   16   21 ar
  29   16   30 1
  30   17   18 ar
  31   17   31 1
  32   18   19 ar
  33   18   32 1
  34   19   20 ar
  35   20   21 ar
  36   20   33 1
  37   21   34 1

#	End of record

