#	Name: ASD07300182
#	Creating user name:	WinNT
#	Creation time:	15. 06. 2019 21:09

#	Modifying user name:	WinNT
#	Modification time:	15. 06. 2019 21:09

#	Program:	/corina/corina34_cracker 3.40 0067  02.08.2006

@<TRIPOS>MOLECULE
ASD07300182
  46   50    0    0    0
SMALL
NO_CHARGES


@<TRIPOS>ATOM
   1 C1            -0.0169     1.3940     0.0097 C.ar    
   2 C2             0.0021    -0.0041     0.0020 C.ar    
   3 C3             1.2200    -0.6674    -0.0135 C.ar    
   4 C4             2.3808     0.0923    -0.0208 C.ar    
   5 C5             2.2878     1.4714    -0.0125 C.ar    
   6 N6             1.1160     2.0768     0.0026 N.ar    
   7 C7            -2.1140     0.6621     0.0347 C.2     
   8 N8            -1.3544     1.7733     0.0301 N.am    
   9 N9            -1.3235    -0.4280     0.0132 N.am    
  10 O10           -3.3305     0.6451     0.0513 O.2     
  11 C11           -1.8310     3.0898     0.0441 C.ar    
  12 C12           -3.1994     3.3317     0.0642 C.ar    
  13 C13           -3.6716     4.6266     0.0780 C.ar    
  14 C14           -2.7742     5.6949     0.0718 C.ar    
  15 C15           -1.4010     5.4489     0.0516 C.ar    
  16 C16           -0.9347     4.1518     0.0436 C.ar    
  17 N17           -1.8329     7.6718     1.9037 N.ar    
  18 C18           -1.3582     8.5326     2.7721 C.ar    
  19 C19           -1.8075     9.8502     2.8172 C.ar    
  20 C20           -2.7664    10.2734     1.9414 C.ar    
  21 C21           -3.2724     9.3456     1.0109 C.ar    
  22 C22           -4.2596     9.7101     0.0811 C.ar    
  23 C23           -4.7315     8.7915    -0.8079 C.ar    
  24 C24           -4.2503     7.4874    -0.8140 C.ar    
  25 C25           -3.2784     7.0874     0.0860 C.ar    
  26 C26           -2.7707     8.0216     1.0212 C.ar    
  27 C27           -1.7801    -1.8200     0.0103 C.3     
  28 C28           -1.9244    -2.3123     1.4517 C.3     
  29 H29            1.2635    -1.7465    -0.0193 H       
  30 H30            3.3476    -0.3890    -0.0325 H       
  31 H31            3.1907     2.0638    -0.0178 H       
  32 H32           -3.8935     2.5043     0.0686 H       
  33 H33           -4.7351     4.8140     0.0932 H       
  34 H34           -0.7041     6.2739     0.0464 H       
  35 H35            0.1282     3.9607     0.0328 H       
  36 H36           -0.5996     8.2112     3.4704 H       
  37 H37           -1.3984    10.5363     3.5441 H       
  38 H38           -3.1268    11.2913     1.9623 H       
  39 H39           -4.6452    10.7189     0.0708 H       
  40 H40           -5.4910     9.0812    -1.5190 H       
  41 H41           -4.6407     6.7778    -1.5284 H       
  42 H42           -2.7441    -1.8852    -0.4941 H       
  43 H43           -1.0529    -2.4398    -0.5142 H       
  44 H44           -2.6515    -1.6925     1.9763 H       
  45 H45           -2.2641    -3.3481     1.4496 H       
  46 H46           -0.9603    -2.2472     1.9562 H       
@<TRIPOS>BOND
   1    1    2 ar
   2    1    6 ar
   3    1    8 1
   4    2    3 ar
   5    2    9 1
   6    3    4 ar
   7    3   29 1
   8    4    5 ar
   9    4   30 1
  10    5    6 ar
  11    5   31 1
  12    7    8 am
  13    7    9 am
  14    7   10 2
  15    8   11 1
  16    9   27 1
  17   11   12 ar
  18   11   16 ar
  19   12   13 ar
  20   12   32 1
  21   13   14 ar
  22   13   33 1
  23   14   15 ar
  24   14   25 1
  25   15   16 ar
  26   15   34 1
  27   16   35 1
  28   17   18 ar
  29   17   26 ar
  30   18   19 ar
  31   18   36 1
  32   19   20 ar
  33   19   37 1
  34   20   21 ar
  35   20   38 1
  36   21   22 ar
  37   21   26 ar
  38   22   23 ar
  39   22   39 1
  40   23   24 ar
  41   23   40 1
  42   24   25 ar
  43   24   41 1
  44   25   26 ar
  45   27   28 1
  46   27   42 1
  47   27   43 1
  48   28   44 1
  49   28   45 1
  50   28   46 1

#	End of record

