#	Name: ASD01885926
#	Creating user name:	WinNT
#	Creation time:	15. 06. 2019 19:50

#	Modifying user name:	WinNT
#	Modification time:	15. 06. 2019 19:50

#	Program:	/corina/corina34_cracker 3.40 0067  02.08.2006

@<TRIPOS>MOLECULE
ASD01885926
  52   55    0    0    0
SMALL
NO_CHARGES


@<TRIPOS>ATOM
   1 C1            -0.0170     1.4035     0.0098 C.ar    
   2 C2            -1.2663     2.0739     0.0193 C.ar    
   3 C3            -1.2870     3.4922     0.0272 C.ar    
   4 C4            -0.0687     4.1600     0.0250 C.ar    
   5 C5             1.1204     3.4237     0.0154 C.ar    
   6 N6             1.1180     2.1037     0.0027 N.ar    
   7 C7             0.0021    -0.0041     0.0020 C.ar    
   8 C8            -1.1701    -0.6952     0.0095 C.ar    
   9 C9            -2.3951    -0.0320     0.0248 C.ar    
  10 C10           -2.4527     1.3298     0.0204 C.ar    
  11 C11           -2.5650     4.2365     0.0369 C.ar    
  12 C12           -3.1763     4.5961    -1.1679 C.ar    
  13 C13           -4.3696     5.2905    -1.1535 C.ar    
  14 C14           -3.1687     4.5778     1.2508 C.ar    
  15 C15            2.4164     4.1441     0.0065 C.2     
  16 N16            3.5724     3.4514    -0.0142 N.am    
  17 O17            2.4363     5.3589     0.0180 O.2     
  18 C18           -1.1425    -2.2020     0.0144 C.3     
  19 C19           -4.9625     5.6318     0.0550 C.ar    
  20 C20           -4.3620     5.2723     1.2544 C.ar    
  21 O21           -6.1361     6.3153     0.0639 O.3     
  22 C22           -1.1538    -2.7169    -1.4263 C.3     
  23 C23           -6.6914     6.6344     1.3413 C.3     
  24 C24           -1.1262    -4.2236    -1.4215 C.ar    
  25 C25           -2.3033    -4.9550    -1.4020 C.ar    
  26 N26           -2.2399    -6.2768    -1.3983 N.ar    
  27 C27           -1.0771    -6.8970    -1.4128 C.ar    
  28 N28            0.0621    -6.2347    -1.4314 N.ar    
  29 C29            0.0769    -4.9114    -1.4421 C.ar    
  30 C30           -1.0495    -8.4038    -1.4074 C.3     
  31 F31           -2.5857     4.2283     2.4183 F       
  32 F32           -2.6003     4.2651    -2.3443 F       
  33 H33           -0.0401     5.2396     0.0304 H       
  34 H34            0.9434    -0.5334    -0.0102 H       
  35 H35           -3.3109    -0.6043     0.0399 H       
  36 H36           -3.4086     1.8325     0.0280 H       
  37 H37           -4.8425     5.5691    -2.0836 H       
  38 H38            3.5565     2.4816    -0.0234 H       
  39 H39            4.4202     3.9227    -0.0200 H       
  40 H40           -0.2387    -2.5471     0.5165 H       
  41 H41           -2.0182    -2.5797     0.5421 H       
  42 H42           -4.8272     5.5397     2.1916 H       
  43 H43           -2.0576    -2.3717    -1.9285 H       
  44 H44           -0.2781    -2.3391    -1.9541 H       
  45 H45           -6.8839     5.7147     1.8938 H       
  46 H46           -5.9880     7.2528     1.8990 H       
  47 H47           -7.6257     7.1790     1.2056 H       
  48 H48           -3.2594    -4.4529    -1.3897 H       
  49 H49            1.0140    -4.3747    -1.4574 H       
  50 H50           -1.0577    -8.7710    -2.4336 H       
  51 H51           -0.1456    -8.7488    -0.9052 H       
  52 H52           -1.9251    -8.7813    -0.8793 H       
@<TRIPOS>BOND
   1    1    7 ar
   2    1    6 ar
   3    1    2 ar
   4    2    3 ar
   5    2   10 ar
   6    3   11 1
   7    3    4 ar
   8    4    5 ar
   9    4   33 1
  10    5   15 1
  11    5    6 ar
  12    7    8 ar
  13    7   34 1
  14    8    9 ar
  15    8   18 1
  16    9   10 ar
  17    9   35 1
  18   10   36 1
  19   11   12 ar
  20   11   14 ar
  21   12   13 ar
  22   12   32 1
  23   13   19 ar
  24   13   37 1
  25   14   31 1
  26   14   20 ar
  27   15   16 am
  28   15   17 2
  29   16   38 1
  30   16   39 1
  31   18   22 1
  32   18   40 1
  33   18   41 1
  34   19   20 ar
  35   19   21 1
  36   20   42 1
  37   21   23 1
  38   22   24 1
  39   22   43 1
  40   22   44 1
  41   23   45 1
  42   23   46 1
  43   23   47 1
  44   24   25 ar
  45   24   29 ar
  46   25   26 ar
  47   25   48 1
  48   26   27 ar
  49   27   28 ar
  50   27   30 1
  51   28   29 ar
  52   29   49 1
  53   30   50 1
  54   30   51 1
  55   30   52 1

#	End of record

