#	Name: ASD03731525
#	Creating user name:	WinNT
#	Creation time:	15. 06. 2019 20:45

#	Modifying user name:	WinNT
#	Modification time:	15. 06. 2019 20:45

#	Program:	/corina/corina34_cracker 3.40 0067  02.08.2006

@<TRIPOS>MOLECULE
ASD03731525
  54   58    0    0    0
SMALL
NO_CHARGES


@<TRIPOS>ATOM
   1 C1            -0.0184     1.5028     0.0103 C.2     
   2 C2             0.0021    -0.0041     0.0020 C.3     
   3 C3             1.4513    -0.4944    -0.0145 C.3     
   4 O4             1.0236     2.1234     0.0037 O.2     
   5 N5            -1.1946     2.1607     0.0195 N.am    
   6 C6            -1.2145     3.6256     0.0275 C.3     
   7 C7            -2.6637     4.1159     0.0371 C.3     
   8 C8            -2.6845     5.6457     0.0455 C.3     
   9 O9            -8.8979     2.7393     2.1988 O.3     
  10 C10          -10.3150     2.7928     2.4481 C.3     
  11 O11          -10.5201     4.1171     2.9744 O.3     
  12 C12           -9.5165     4.8794     2.4484 C.ar    
  13 C13           -8.5189     4.0315     1.9726 C.ar    
  14 C14           -9.3717     6.2503     2.3343 C.ar    
  15 C15           -8.2322     6.7925     1.7475 C.ar    
  16 C16           -7.2388     5.9357     1.2835 C.ar    
  17 C17           -7.3830     4.5682     1.3902 C.ar    
  18 O18           -7.9033     8.0972     1.5243 O.3     
  19 C19           -6.1403     6.8084     0.7378 C.3     
  20 C20           -6.4846     8.1968     1.2939 C.3     
  21 N21           -4.0722     6.1152     0.0546 N.am    
  22 C22           -4.7795     6.3508     1.1777 C.2     
  23 C23           -6.0970     6.8011    -0.7615 C.ar    
  24 C24           -7.0126     7.1140    -1.7413 C.ar    
  25 C25           -6.6642     7.0046    -3.0758 C.ar    
  26 C26           -5.3947     6.5797    -3.4231 C.ar    
  27 C27           -4.4744     6.2642    -2.4454 C.ar    
  28 C28           -4.8162     6.3718    -1.0995 C.ar    
  29 O29           -4.3925     6.2192     2.3196 O.2     
  30 C30           -0.7002    -0.5305     1.2552 C.3     
  31 H31           -0.5153    -0.3696    -0.8850 H       
  32 H32            1.9686    -0.1289     0.8726 H       
  33 H33            1.4661    -1.5843    -0.0204 H       
  34 H34            1.9516    -0.1193    -0.9073 H       
  35 H35           -2.0280     1.6644     0.0207 H       
  36 H36           -0.7014     3.9910     0.9171 H       
  37 H37           -0.7098     4.0007    -0.8628 H       
  38 H38           -3.1768     3.7505    -0.8525 H       
  39 H39           -3.1683     3.7408     0.9274 H       
  40 H40           -2.1714     6.0112     0.9350 H       
  41 H41           -2.1798     6.0209    -0.8449 H       
  42 H42          -10.8722     2.6586     1.5209 H       
  43 H43          -10.6034     2.0402     3.1818 H       
  44 H44          -10.1480     6.9043     2.7032 H       
  45 H45           -6.6078     3.9142     1.0188 H       
  46 H46           -6.2650     8.9729     0.5607 H       
  47 H47           -5.9530     8.3828     2.2271 H       
  48 H48           -8.0034     7.4455    -1.4678 H       
  49 H49           -7.3818     7.2508    -3.8445 H       
  50 H50           -5.1228     6.4942    -4.4648 H       
  51 H51           -3.4852     5.9325    -2.7244 H       
  52 H52           -1.7327    -0.1812     1.2669 H       
  53 H53           -0.6854    -1.6204     1.2492 H       
  54 H54           -0.1829    -0.1650     2.1423 H       
@<TRIPOS>BOND
   1    1    2 1
   2    1    4 2
   3    1    5 am
   4    2    3 1
   5    2   30 1
   6    2   31 1
   7    3   32 1
   8    3   33 1
   9    3   34 1
  10    5    6 1
  11    5   35 1
  12    6    7 1
  13    6   36 1
  14    6   37 1
  15    7    8 1
  16    7   38 1
  17    7   39 1
  18    8   21 1
  19    8   40 1
  20    8   41 1
  21    9   10 1
  22    9   13 1
  23   10   11 1
  24   10   42 1
  25   10   43 1
  26   11   12 1
  27   12   13 ar
  28   12   14 ar
  29   13   17 ar
  30   14   15 ar
  31   14   44 1
  32   15   16 ar
  33   15   18 1
  34   16   17 ar
  35   16   19 1
  36   17   45 1
  37   18   20 1
  38   19   20 1
  39   19   22 1
  40   19   23 1
  41   20   46 1
  42   20   47 1
  43   21   22 am
  44   21   28 1
  45   22   29 2
  46   23   24 ar
  47   23   28 ar
  48   24   25 ar
  49   24   48 1
  50   25   26 ar
  51   25   49 1
  52   26   27 ar
  53   26   50 1
  54   27   28 ar
  55   27   51 1
  56   30   52 1
  57   30   53 1
  58   30   54 1

#	End of record

