#	Name: ASD08150956
#	Creating user name:	WinNT
#	Creation time:	15. 06. 2019 21:16

#	Modifying user name:	WinNT
#	Modification time:	15. 06. 2019 21:16

#	Program:	/corina/corina34_cracker 3.40 0067  02.08.2006

@<TRIPOS>MOLECULE
ASD08150956
  59   63    0    0    0
SMALL
NO_CHARGES


@<TRIPOS>ATOM
   1 C1            -0.2449     0.8003     0.9622 C.2     
   2 N2            -0.1370    -0.5327     0.7954 N.am    
   3 O3             0.7511     1.4964     0.9524 O.2     
   4 O4            -1.4566     1.3614     1.1341 O.3     
   5 N5             2.8171    -3.1711    -0.6412 N.3     
   6 C6             2.5000    -3.2541     0.7902 C.3     
   7 C7             1.1384    -2.6059     1.0508 C.3     
   8 C8             1.1810    -1.1425     0.6023 C.3     
   9 C9             1.5607    -1.0819    -0.8798 C.3     
  10 C10            2.9101    -1.7742    -1.0844 C.3     
  11 N11            5.2634    -2.4879     0.5473 N.ar    
  12 C12            6.3907    -2.1431     1.1208 C.ar    
  13 C13            7.5831    -2.8127     0.8541 C.ar    
  14 C14            7.5957    -3.8580    -0.0248 C.ar    
  15 C15            6.3828    -4.2252    -0.6380 C.ar    
  16 C16            6.3201    -5.2904    -1.5520 C.ar    
  17 C17            5.1303    -5.6217    -2.1284 C.ar    
  18 C18            3.9680    -4.9188    -1.8257 C.ar    
  19 C19            3.9898    -3.8679    -0.9348 C.ar    
  20 C20            5.2075    -3.5010    -0.3215 C.ar    
  21 C21            2.6692    -5.3112    -2.4816 C.3     
  22 C22            2.4739    -4.4902    -3.7578 C.3     
  23 N23            2.7033    -6.7366    -2.8183 N.pl3   
  24 N24            2.5082    -9.7275    -3.5018 N.2     
  25 C25            1.9667   -10.8892    -3.7272 C.2     
  26 N26            0.6128   -10.8061    -3.5911 N.pl3   
  27 C27            0.3114    -9.5089    -3.2614 C.ar    
  28 N28           -0.8094    -8.8412    -3.0082 N.ar    
  29 C29           -0.7740    -7.5593    -2.7107 C.ar    
  30 N30            0.3548    -6.8769    -2.6489 N.ar    
  31 C31            1.5254    -7.4599    -2.8862 C.ar    
  32 C32            1.5392    -8.8276    -3.2076 C.ar    
  33 Cl33           7.7558    -6.1829    -1.9468 Cl      
  34 C34           -1.4972     2.8024     1.3077 C.3     
  35 H35           -0.9320    -1.0884     0.8032 H       
  36 H36            2.4687    -4.3001     1.0952 H       
  37 H37            3.2664    -2.7318     1.3628 H       
  38 H38            0.3694    -3.1364     0.4892 H       
  39 H39            0.9104    -2.6538     2.1156 H       
  40 H40            1.9221    -0.6024     1.1916 H       
  41 H41            0.7984    -1.5883    -1.4718 H       
  42 H42            1.6344    -0.0408    -1.1943 H       
  43 H43            3.6746    -1.2588    -0.5030 H       
  44 H44            3.1766    -1.7453    -2.1409 H       
  45 H45            6.3953    -1.3183     1.8179 H       
  46 H46            8.4964    -2.5052     1.3415 H       
  47 H47            8.5109    -4.3880    -0.2436 H       
  48 H48            5.0889    -6.4416    -2.8301 H       
  49 H49            1.8436    -5.1194    -1.7962 H       
  50 H50            1.5345    -4.7741    -4.2322 H       
  51 H51            2.4485    -3.4297    -3.5073 H       
  52 H52            3.2995    -4.6820    -4.4431 H       
  53 H53            3.5515    -7.1734    -2.9936 H       
  54 H54            2.5097   -11.7865    -3.9846 H       
  55 H55           -0.0212   -11.5311    -3.7066 H       
  56 H56           -1.7030    -7.0464    -2.5103 H       
  57 H57           -2.5308     3.1240     1.4358 H       
  58 H58           -0.9189     3.0786     2.1894 H       
  59 H59           -1.0724     3.2865     0.4283 H       
@<TRIPOS>BOND
   1    1    2 am
   2    1    3 2
   3    1    4 1
   4    2    8 1
   5    2   35 1
   6    4   34 1
   7    5    6 1
   8    5   10 1
   9    5   19 1
  10    6    7 1
  11    6   36 1
  12    6   37 1
  13    7    8 1
  14    7   38 1
  15    7   39 1
  16    8    9 1
  17    8   40 1
  18    9   10 1
  19    9   41 1
  20    9   42 1
  21   10   43 1
  22   10   44 1
  23   11   12 ar
  24   11   20 ar
  25   12   13 ar
  26   12   45 1
  27   13   14 ar
  28   13   46 1
  29   14   15 ar
  30   14   47 1
  31   15   16 ar
  32   15   20 ar
  33   16   17 ar
  34   16   33 1
  35   17   18 ar
  36   17   48 1
  37   18   19 ar
  38   18   21 1
  39   19   20 ar
  40   21   22 1
  41   21   23 1
  42   21   49 1
  43   22   50 1
  44   22   51 1
  45   22   52 1
  46   23   31 1
  47   23   53 1
  48   24   25 2
  49   24   32 1
  50   25   26 1
  51   25   54 1
  52   26   27 1
  53   26   55 1
  54   27   28 ar
  55   27   32 ar
  56   28   29 ar
  57   29   30 ar
  58   29   56 1
  59   30   31 ar
  60   31   32 ar
  61   34   57 1
  62   34   58 1
  63   34   59 1

#	End of record

