#	Name: ASD01830019
#	Creating user name:	WinNT
#	Creation time:	15. 06. 2019 19:36

#	Modifying user name:	WinNT
#	Modification time:	15. 06. 2019 19:36

#	Program:	/corina/corina34_cracker 3.40 0067  02.08.2006

@<TRIPOS>MOLECULE
ASD01830019
  64   71    0    0    0
SMALL
NO_CHARGES


@<TRIPOS>ATOM
   1 N1             0.4615     1.8735    -0.4274 N.am    
   2 C2             0.5929     0.5460    -0.6238 C.2     
   3 C3            -0.5592    -0.3778    -0.3495 C.3     
   4 C4            -1.5851     0.1643     0.6440 C.3     
   5 C5            -1.3330     1.6072     0.9937 C.3     
   6 C6            -0.9152     2.4211    -0.2192 C.3     
   7 C7            -2.3307     2.3050     1.8709 C.3     
   8 C8            -1.6558     3.5878     2.3898 C.3     
   9 C9            -1.4452     4.5060     1.2042 C.3     
  10 C10           -0.7226     3.9027     0.0210 C.3     
  11 C11            1.3831     2.8730    -0.2291 C.ar    
  12 C12            0.7683     4.0955     0.0659 C.ar    
  13 C13            1.4957     5.2400     0.3313 C.ar    
  14 C14            2.8804     5.1388     0.2802 C.ar    
  15 C15            3.4999     3.9440    -0.0246 C.ar    
  16 C16            2.7800     2.7906    -0.2845 C.ar    
  17 O17            1.6458     0.0960    -1.0239 O.2     
  18 N18           -2.7203     5.0450     0.7153 N.4     
  19 C19           -3.5505     2.6981     1.0810 C.2     
  20 C20           -3.7848     4.0706     0.5644 C.3     
  21 C21           -1.2444     4.7219    -1.1893 C.3     
  22 O22           -2.8946    -0.0167     0.0942 O.3     
  23 C23           -4.3664     1.7306     0.7303 C.2     
  24 C24           -3.9736     0.3002     0.9783 C.3     
  25 H25           -0.4314     1.5762     1.6055 H       
  26 H26           -2.6061     1.6629     2.7075 H       
  27 H27           -1.5225    -0.4265     1.5579 H       
  28 H28           -1.5624     2.2245    -1.0740 H       
  29 H29           -0.8555     5.3558     1.5481 H       
  30 C30           -2.4283     5.5454    -0.6577 C.3     
  31 C31           -3.1650     6.1443     1.5823 C.3     
  32 C32           -4.4144     6.7930     0.9830 C.3     
  33 C33           -4.7933     8.0019     1.7990 C.ar    
  34 C34           -4.2765     9.2429     1.4768 C.ar    
  35 C35           -4.6240    10.3519     2.2254 C.ar    
  36 C36           -5.4886    10.2199     3.2959 C.ar    
  37 C37           -6.0061     8.9791     3.6175 C.ar    
  38 C38           -5.6620     7.8709     2.8663 C.ar    
  39 H39           -1.0670    -0.5855    -1.2913 H       
  40 H40           -0.1642    -1.3163     0.0397 H       
  41 H41           -2.2991     4.0732     3.1238 H       
  42 H42           -0.6953     3.3430     2.8432 H       
  43 H43            1.0083     6.1741     0.5683 H       
  44 H44            3.4833     6.0117     0.4824 H       
  45 H45            4.5787     3.9076    -0.0610 H       
  46 H46            3.2772     1.8618    -0.5221 H       
  47 H47           -4.6702     4.4662     1.0620 H       
  48 H48           -4.0142     3.9910    -0.4982 H       
  49 H49           -0.4622     5.3841    -1.5605 H       
  50 H50           -1.5779     4.0517    -1.9815 H       
  51 H51           -5.3139     1.9609     0.2661 H       
  52 H52           -4.8208    -0.3554     0.7767 H       
  53 H53           -3.6509     0.1801     2.0125 H       
  54 H54           -3.2983     5.4036    -1.2988 H       
  55 H55           -2.1607     6.6013    -0.6203 H       
  56 H56           -3.3979     5.7542     2.5731 H       
  57 H57           -2.3721     6.8879     1.6617 H       
  58 H58           -4.2091     7.0972    -0.0434 H       
  59 H59           -5.2358     6.0765     0.9922 H       
  60 H60           -3.6010     9.3460     0.6405 H       
  61 H61           -4.2197    11.3213     1.9741 H       
  62 H62           -5.7595    11.0862     3.8811 H       
  63 H63           -6.6813     8.8760     4.4541 H       
  64 H64           -6.0663     6.9015     3.1176 H       
@<TRIPOS>BOND
   1    1    2 am
   2    1   11 1
   3    1    6 1
   4    2    3 1
   5    2   17 2
   6    3    4 1
   7    3   39 1
   8    3   40 1
   9    4    5 1
  10    4   22 1
  11    4   27 1
  12    5    6 1
  13    5   25 1
  14    5    7 1
  15    6   10 1
  16    6   28 1
  17    7    8 1
  18    7   19 1
  19    7   26 1
  20    8    9 1
  21    8   41 1
  22    8   42 1
  23    9   10 1
  24    9   18 1
  25    9   29 1
  26   10   21 1
  27   10   12 1
  28   11   12 ar
  29   11   16 ar
  30   12   13 ar
  31   13   14 ar
  32   13   43 1
  33   14   15 ar
  34   14   44 1
  35   15   16 ar
  36   15   45 1
  37   16   46 1
  38   18   20 1
  39   18   30 1
  40   18   31 1
  41   19   23 2
  42   19   20 1
  43   20   47 1
  44   20   48 1
  45   21   30 1
  46   21   49 1
  47   21   50 1
  48   22   24 1
  49   23   24 1
  50   23   51 1
  51   24   52 1
  52   24   53 1
  53   30   54 1
  54   30   55 1
  55   31   32 1
  56   31   56 1
  57   31   57 1
  58   32   33 1
  59   32   58 1
  60   32   59 1
  61   33   34 ar
  62   33   38 ar
  63   34   35 ar
  64   34   60 1
  65   35   36 ar
  66   35   61 1
  67   36   37 ar
  68   36   62 1
  69   37   38 ar
  70   37   63 1
  71   38   64 1

#	End of record

