#	Name: ASD02198021
#	Creating user name:	WinNT
#	Creation time:	15. 06. 2019 20:18

#	Modifying user name:	WinNT
#	Modification time:	15. 06. 2019 20:18

#	Program:	/corina/corina34_cracker 3.40 0067  02.08.2006

@<TRIPOS>MOLECULE
ASD02198021
  45   48    0    0    0
SMALL
NO_CHARGES


@<TRIPOS>ATOM
   1 N1             1.3127    -0.5215     0.3473 N.pl3   
   2 N2             0.0777    -2.9816    -0.2894 N.pl3   
   3 C3            -1.0961    -2.2719    -0.1480 C.2     
   4 C4            -1.1659    -0.9192     0.0882 C.2     
   5 C5             0.0268    -0.0658     0.2182 C.2     
   6 S6            -2.6560    -2.9526    -0.2498 S.3     
   7 C7            -3.4228    -1.3986     0.0372 C.2     
   8 C8            -2.4639    -0.4283     0.1935 C.2     
   9 C9            -4.8124    -1.1799     0.0937 C.2     
  10 O10           -5.2447    -0.0598     0.2985 O.2     
  11 O11           -5.6661    -2.2122    -0.0792 O.3     
  12 N12           -2.7592     0.9065     0.4346 N.pl3   
  13 C13            0.0464    -4.3768    -0.3602 C.ar    
  14 C14            0.9412    -5.0526    -1.1803 C.ar    
  15 N15            0.0193     1.2478     0.2286 N.2     
  16 C16            1.2877     1.7097     0.3639 C.ar    
  17 C17            2.1328     0.5895     0.4417 C.ar    
  18 C18            1.8389     2.9929     0.4319 C.ar    
  19 C19            3.1995     3.1459     0.5740 C.ar    
  20 C20            4.0289     2.0365     0.6498 C.ar    
  21 C21            3.5014     0.7634     0.5848 C.ar    
  22 C22            0.9078    -6.4315    -1.2475 C.ar    
  23 C23           -0.0150    -7.1397    -0.4996 C.ar    
  24 C24           -0.9075    -6.4701     0.3175 C.ar    
  25 C25           -0.8759    -5.0916     0.3938 C.ar    
  26 C26           -7.0627    -1.9178    -0.0091 C.3     
  27 C27           -7.8661    -3.2015    -0.2274 C.3     
  28 H28            1.5949    -1.4492     0.3722 H       
  29 H29            0.9251    -2.5123    -0.3397 H       
  30 H30           -3.6785     1.1820     0.5759 H       
  31 H31           -2.0463     1.5637     0.4618 H       
  32 H32            1.6619    -4.5001    -1.7649 H       
  33 H33            1.1993     3.8611     0.3728 H       
  34 H34            3.6246     4.1373     0.6265 H       
  35 H35            5.0948     2.1703     0.7606 H       
  36 H36            4.1527    -0.0960     0.6448 H       
  37 H37            1.6029    -6.9575    -1.8852 H       
  38 H38           -0.0390    -8.2180    -0.5540 H       
  39 H39           -1.6272    -7.0262     0.9000 H       
  40 H40           -1.5730    -4.5694     1.0324 H       
  41 H41           -7.2980    -1.5042     0.9715 H       
  42 H42           -7.3202    -1.1923    -0.7808 H       
  43 H43           -7.6307    -3.6151    -1.2081 H       
  44 H44           -7.6085    -3.9269     0.5442 H       
  45 H45           -8.9313    -2.9769    -0.1740 H       
@<TRIPOS>BOND
   1    1    5 1
   2    1   17 1
   3    1   28 1
   4    2    3 1
   5    2   13 1
   6    2   29 1
   7    3    4 2
   8    3    6 1
   9    4    5 1
  10    4    8 1
  11    5   15 2
  12    6    7 1
  13    7    8 2
  14    7    9 1
  15    8   12 1
  16    9   10 2
  17    9   11 1
  18   11   26 1
  19   12   30 1
  20   12   31 1
  21   13   14 ar
  22   13   25 ar
  23   14   22 ar
  24   14   32 1
  25   15   16 1
  26   16   17 ar
  27   16   18 ar
  28   17   21 ar
  29   18   19 ar
  30   18   33 1
  31   19   20 ar
  32   19   34 1
  33   20   21 ar
  34   20   35 1
  35   21   36 1
  36   22   23 ar
  37   22   37 1
  38   23   24 ar
  39   23   38 1
  40   24   25 ar
  41   24   39 1
  42   25   40 1
  43   26   27 1
  44   26   41 1
  45   26   42 1
  46   27   43 1
  47   27   44 1
  48   27   45 1

#	End of record

