#	Name: ASD08178038
#	Creating user name:	WinNT
#	Creation time:	15. 06. 2019 21:18

#	Modifying user name:	WinNT
#	Modification time:	15. 06. 2019 21:18

#	Program:	/corina/corina34_cracker 3.40 0067  02.08.2006

@<TRIPOS>MOLECULE
ASD08178038
  91   92    0    0    0
SMALL
NO_CHARGES


@<TRIPOS>ATOM
   1 N1            -0.0387     1.2493     0.1420 N.2     
   2 C2            -0.0219    -0.0493     0.1647 C.2     
   3 N3            -1.1404    -0.8752     0.1335 N.am    
   4 N4             1.0709     1.8505     0.1759 N.2     
   5 C5             2.1308     1.1081     0.2306 C.2     
   6 S6             1.6066    -0.5761     0.2383 S.3     
   7 C7             3.5560     1.5957     0.2782 C.3     
   8 C8             3.9817     1.7852     1.7355 C.3     
   9 S9             5.6972     2.3721     1.7928 S.3     
  10 C10            6.0138     2.5342     3.5716 C.3     
  11 C11            7.4448     3.0290     3.7919 C.3     
  12 C12            7.7078     3.1637     5.2697 C.2     
  13 N13            8.1790     2.2425     6.0488 N.2     
  14 N14            8.3292     2.5525     7.2634 N.2     
  15 C15            8.0014     3.7567     7.6234 C.2     
  16 S16            7.4364     4.6065     6.2475 S.3     
  17 N17            8.0974     4.2721     8.9116 N.am    
  18 C18            8.5647     3.5005     9.9130 C.2     
  19 O19            8.9015     2.3568     9.6908 O.2     
  20 C20            8.6687     4.0590    11.3088 C.3     
  21 N21            9.2004     3.0315    12.2076 N.am    
  22 C22            9.6059     5.2684    11.3057 C.3     
  23 C23            9.7115     5.8354    12.7229 C.3     
  24 C24           10.9927     4.8376    10.8241 C.3     
  25 C25            8.9278     3.0832    13.5265 C.2     
  26 O26            8.2411     3.9821    13.9701 O.2     
  27 O27            9.4164     2.1389    14.3524 O.3     
  28 C28            9.0825     2.2578    15.7605 C.3     
  29 C29            7.5628     2.2062    15.9303 C.3     
  30 C30            9.7218     1.1039    16.5355 C.3     
  31 C31            9.6109     3.5887    16.2993 C.3     
  32 C32           -2.3744    -0.3365     0.0751 C.2     
  33 O33           -2.5149     0.8663     0.1427 O.2     
  34 C34           -3.5798    -1.2286    -0.0743 C.3     
  35 N35           -4.7409    -0.5892     0.5495 N.am    
  36 C36           -3.8620    -1.4599    -1.5602 C.3     
  37 C37           -2.6162    -2.0416    -2.2314 C.3     
  38 C38           -5.0274    -2.4397    -1.7115 C.3     
  39 C39           -5.7667    -1.3418     0.9941 C.2     
  40 O40           -5.7285    -2.5507     0.8775 O.2     
  41 O41           -6.8338    -0.7542     1.5674 O.3     
  42 C42           -7.9013    -1.6268     2.0228 C.3     
  43 C43           -7.3542    -2.5978     3.0710 C.3     
  44 C44           -9.0191    -0.7850     2.6417 C.3     
  45 C45           -8.4556    -2.4170     0.8357 C.3     
  46 H46           -1.0324    -1.8389     0.1538 H       
  47 H47            4.2069     0.8625    -0.1980 H       
  48 H48            3.6326     2.5464    -0.2493 H       
  49 H49            3.3308     2.5184     2.2117 H       
  50 H50            3.9052     0.8345     2.2630 H       
  51 H51            5.3121     3.2487     4.0019 H       
  52 H52            5.8864     1.5647     4.0532 H       
  53 H53            8.1465     2.3145     3.3616 H       
  54 H54            7.5722     3.9985     3.3103 H       
  55 H55            7.8280     5.1868     9.0893 H       
  56 H56            7.6807     4.3659    11.6519 H       
  57 H57            9.7486     2.3139    11.8534 H       
  58 H58            9.2103     6.0329    10.6371 H       
  59 H59           10.1071     5.0709    13.3916 H       
  60 H60           10.3792     6.6969    12.7207 H       
  61 H61            8.7235     6.1423    13.0660 H       
  62 H62           10.9175     4.4337     9.8145 H       
  63 H63           11.6604     5.6992    10.8219 H       
  64 H64           11.3883     4.0731    11.4928 H       
  65 H65            7.1863     1.2580    15.5464 H       
  66 H66            7.3121     2.2954    16.9873 H       
  67 H67            7.1073     3.0282    15.3782 H       
  68 H68           10.8044     1.1407    16.4145 H       
  69 H69            9.4710     1.1931    17.5925 H       
  70 H70            9.3453     0.1557    16.1516 H       
  71 H71            9.1555     4.4108    15.7472 H       
  72 H72            9.3602     3.6779    17.3564 H       
  73 H73           10.6936     3.6255    16.1783 H       
  74 H74           -3.3866    -2.1848     0.4120 H       
  75 H75           -4.7714     0.3758     0.6426 H       
  76 H76           -4.1203    -0.5123    -2.0328 H       
  77 H77           -2.3885    -3.0138    -1.7943 H       
  78 H78           -2.7996    -2.1575    -3.2996 H       
  79 H79           -1.7731    -1.3680    -2.0785 H       
  80 H80           -5.9149    -2.0252    -1.2333 H       
  81 H81           -5.2284    -2.6045    -2.7700 H       
  82 H82           -4.7690    -3.3873    -1.2389 H       
  83 H83           -6.9593    -2.0349     3.9167 H       
  84 H84           -8.1556    -3.2528     3.4128 H       
  85 H85           -6.5579    -3.1975     2.6301 H       
  86 H86           -9.4089    -0.0932     1.8949 H       
  87 H87           -9.8204    -1.4400     2.9835 H       
  88 H88           -8.6242    -0.2221     3.4874 H       
  89 H89           -7.6593    -3.0167     0.3948 H       
  90 H90           -9.2570    -3.0720     1.1775 H       
  91 H91           -8.8454    -1.7252     0.0889 H       
@<TRIPOS>BOND
   1    1    2 2
   2    1    4 1
   3    2    3 1
   4    2    6 1
   5    3   32 am
   6    3   46 1
   7    4    5 2
   8    5    6 1
   9    5    7 1
  10    7    8 1
  11    7   47 1
  12    7   48 1
  13    8    9 1
  14    8   49 1
  15    8   50 1
  16    9   10 1
  17   10   11 1
  18   10   51 1
  19   10   52 1
  20   11   12 1
  21   11   53 1
  22   11   54 1
  23   12   13 2
  24   12   16 1
  25   13   14 1
  26   14   15 2
  27   15   16 1
  28   15   17 1
  29   17   18 am
  30   17   55 1
  31   18   19 2
  32   18   20 1
  33   20   21 1
  34   20   22 1
  35   20   56 1
  36   21   25 am
  37   21   57 1
  38   22   23 1
  39   22   24 1
  40   22   58 1
  41   23   59 1
  42   23   60 1
  43   23   61 1
  44   24   62 1
  45   24   63 1
  46   24   64 1
  47   25   26 2
  48   25   27 1
  49   27   28 1
  50   28   29 1
  51   28   30 1
  52   28   31 1
  53   29   65 1
  54   29   66 1
  55   29   67 1
  56   30   68 1
  57   30   69 1
  58   30   70 1
  59   31   71 1
  60   31   72 1
  61   31   73 1
  62   32   33 2
  63   32   34 1
  64   34   35 1
  65   34   36 1
  66   34   74 1
  67   35   39 am
  68   35   75 1
  69   36   37 1
  70   36   38 1
  71   36   76 1
  72   37   77 1
  73   37   78 1
  74   37   79 1
  75   38   80 1
  76   38   81 1
  77   38   82 1
  78   39   40 2
  79   39   41 1
  80   41   42 1
  81   42   43 1
  82   42   44 1
  83   42   45 1
  84   43   83 1
  85   43   84 1
  86   43   85 1
  87   44   86 1
  88   44   87 1
  89   44   88 1
  90   45   89 1
  91   45   90 1
  92   45   91 1

#	End of record

