#	Name: ASD00510017
#	Creating user name:	WinNT
#	Creation time:	15. 06. 2019 18:36

#	Modifying user name:	WinNT
#	Modification time:	15. 06. 2019 18:36

#	Program:	/corina/corina34_cracker 3.40 0067  02.08.2006

@<TRIPOS>MOLECULE
ASD00510017
  45   48    0    0    0
SMALL
NO_CHARGES


@<TRIPOS>ATOM
   1 C1            -0.0169     1.3950     0.0097 C.ar    
   2 C2             0.0021    -0.0041     0.0020 C.ar    
   3 C3             1.1966    -0.6621    -0.0129 C.ar    
   4 C4             2.3990     0.0399    -0.0201 C.ar    
   5 C5             2.4160     1.4018    -0.0124 C.ar    
   6 C6             1.2037     2.1121     0.0019 C.ar    
   7 C7             1.1824     3.5187     0.0085 C.ar    
   8 C8             0.0049     4.1974     0.0224 C.ar    
   9 C9            -1.2232     3.5377     0.0306 C.ar    
  10 C10           -1.2755     2.1410     0.0196 C.ar    
  11 N11           -2.4679     1.4909     0.0218 N.2     
  12 N12           -3.5689     2.1629     0.0306 N.2     
  13 O13           -2.3743     4.2556     0.0444 O.3     
  14 C14           -4.7644     1.5111     0.0328 C.ar    
  15 C15           -7.2429     1.5399     0.0447 C.ar    
  16 C16           -7.2184     0.1347     0.0375 C.ar    
  17 C17           -6.0359    -0.5398     0.0332 C.ar    
  18 C18           -4.8156     0.1212     0.0315 C.ar    
  19 C19           -6.0221     2.2575     0.0428 C.ar    
  20 C20           -6.0421     3.6568     0.0509 C.ar    
  21 C21           -7.2369     4.3136     0.0604 C.ar    
  22 C22           -8.4394     3.6111     0.0627 C.ar    
  23 C23           -8.4560     2.2496     0.0550 C.ar    
  24 S24            0.0314     5.9592     0.0308 S.o2    
  25 O25            0.1787     6.3647    -1.3232 O.2     
  26 O26           -1.0515     6.3729     0.8526 O.2     
  27 O27            1.3035     6.3872     0.7484 O.3     
  28 S28            3.9214    -0.8469    -0.0387 S.o2    
  29 O29            4.9021     0.0281     0.5016 O.2     
  30 O30            3.6441    -2.1317     0.5014 O.2     
  31 O31            4.2975    -1.0658    -1.4971 O.3     
  32 H32           -0.9240    -0.5598     0.0082 H       
  33 H33            1.2100    -1.7420    -0.0188 H       
  34 H34            3.3563     1.9330    -0.0174 H       
  35 H35            2.1133     4.0661     0.0029 H       
  36 H36           -2.7161     4.4678    -0.8349 H       
  37 H37           -8.1475    -0.4159     0.0393 H       
  38 H38           -6.0477    -1.6197     0.0277 H       
  39 H39           -3.8980    -0.4485     0.0287 H       
  40 H40           -5.1164     4.2132     0.0499 H       
  41 H41           -7.2509     5.3935     0.0667 H       
  42 H42           -9.3728     4.1544     0.0710 H       
  43 H43           -9.3961     1.7180     0.0562 H       
  44 H44            1.4173     7.3456     0.8092 H       
  45 H45            5.1261    -1.5485    -1.6215 H       
@<TRIPOS>BOND
   1    1    2 ar
   2    1    6 ar
   3    1   10 ar
   4    2    3 ar
   5    2   32 1
   6    3    4 ar
   7    3   33 1
   8    4    5 ar
   9    4   28 1
  10    5    6 ar
  11    5   34 1
  12    6    7 ar
  13    7    8 ar
  14    7   35 1
  15    8    9 ar
  16    8   24 1
  17    9   10 ar
  18    9   13 1
  19   10   11 1
  20   11   12 2
  21   12   14 1
  22   13   36 1
  23   14   19 ar
  24   14   18 ar
  25   15   16 ar
  26   15   19 ar
  27   15   23 ar
  28   16   17 ar
  29   16   37 1
  30   17   18 ar
  31   17   38 1
  32   18   39 1
  33   19   20 ar
  34   20   21 ar
  35   20   40 1
  36   21   22 ar
  37   21   41 1
  38   22   23 ar
  39   22   42 1
  40   23   43 1
  41   24   25 2
  42   24   26 2
  43   24   27 1
  44   27   44 1
  45   28   29 2
  46   28   30 2
  47   28   31 1
  48   31   45 1

#	End of record

