#	Name: ASD01200047
#	Creating user name:	WinNT
#	Creation time:	15. 06. 2019 19:08

#	Modifying user name:	WinNT
#	Modification time:	15. 06. 2019 19:08

#	Program:	/corina/corina34_cracker 3.40 0067  02.08.2006

@<TRIPOS>MOLECULE
ASD01200047
  38   40    0    0    0
SMALL
NO_CHARGES


@<TRIPOS>ATOM
   1 C1             0.0936     1.1643    -0.1933 C.ar    
   2 C2            -0.0420    -0.1802     0.1399 C.ar    
   3 C3            -1.2770    -0.7919     0.0805 C.ar    
   4 C4            -2.3955    -0.0687    -0.3131 C.ar    
   5 C5            -2.2662     1.2874    -0.6506 C.ar    
   6 C6            -1.0126     1.9002    -0.5825 C.ar    
   7 C7            -3.4478     2.0624    -1.0699 C.2     
   8 N8            -3.3498     3.3940    -1.2538 N.am    
   9 C9            -4.4633     4.1243    -1.6489 C.2     
  10 N10           -4.4775     5.4045    -1.8530 N.2     
  11 C11           -5.6260     5.9372    -2.2265 C.2     
  12 C12           -6.6298     5.0658    -2.3435 C.2     
  13 S13           -6.0128     3.4648    -1.9440 S.3     
  14 O14           -4.5111     1.5004    -1.2499 O.2     
  15 C15           -5.7904     7.4103    -2.4988 C.3     
  16 S16            1.6766     1.9339    -0.1127 S.3     
  17 N17           -3.6406    -0.6870    -0.3731 N.pl3   
  18 C18            2.3782     1.5632    -1.6860 C.ar    
  19 C19            3.6957     1.9100    -1.9603 C.ar    
  20 C20            4.2421     1.6180    -3.1943 C.ar    
  21 C21            3.4799     0.9812    -4.1568 C.ar    
  22 C22            2.1684     0.6345    -3.8873 C.ar    
  23 C23            1.6170     0.9182    -2.6535 C.ar    
  24 H24            0.8242    -0.7477     0.4463 H       
  25 H25           -1.3743    -1.8356     0.3403 H       
  26 H26           -0.9052     2.9434    -0.8407 H       
  27 H27           -2.5017     3.8423    -1.1102 H       
  28 H28           -7.6428     5.3005    -2.6355 H       
  29 H29           -5.5817     7.6110    -3.5496 H       
  30 H30           -6.8123     7.7107    -2.2674 H       
  31 H31           -5.0960     7.9745    -1.8762 H       
  32 H32           -3.6995    -1.6509    -0.4644 H       
  33 H33           -4.4496    -0.1542    -0.3236 H       
  34 H34            4.2914     2.4077    -1.2093 H       
  35 H35            5.2658     1.8876    -3.4083 H       
  36 H36            3.9098     0.7543    -5.1212 H       
  37 H37            1.5760     0.1376    -4.6414 H       
  38 H38            0.5930     0.6469    -2.4437 H       
@<TRIPOS>BOND
   1    1    2 ar
   2    1   16 1
   3    1    6 ar
   4    2    3 ar
   5    2   24 1
   6    3    4 ar
   7    3   25 1
   8    4    5 ar
   9    4   17 1
  10    5    6 ar
  11    5    7 1
  12    6   26 1
  13    7    8 am
  14    7   14 2
  15    8    9 1
  16    8   27 1
  17    9   10 2
  18    9   13 1
  19   10   11 1
  20   11   12 2
  21   11   15 1
  22   12   13 1
  23   12   28 1
  24   15   29 1
  25   15   30 1
  26   15   31 1
  27   16   18 1
  28   17   32 1
  29   17   33 1
  30   18   19 ar
  31   18   23 ar
  32   19   20 ar
  33   19   34 1
  34   20   21 ar
  35   20   35 1
  36   21   22 ar
  37   21   36 1
  38   22   23 ar
  39   22   37 1
  40   23   38 1

#	End of record

