#	Name: ASD01884078
#	Creating user name:	WinNT
#	Creation time:	15. 06. 2019 19:47

#	Modifying user name:	WinNT
#	Modification time:	15. 06. 2019 19:47

#	Program:	/corina/corina34_cracker 3.40 0067  02.08.2006

@<TRIPOS>MOLECULE
ASD01884078
  59   61    0    0    0
SMALL
NO_CHARGES


@<TRIPOS>ATOM
   1 C1            -0.8297    -0.0403     1.1339 C.2     
   2 C2             0.0021    -0.0041     0.0020 C.2     
   3 C3            -0.4084     0.7466    -1.1152 C.2     
   4 C4            -1.5823     1.4144    -1.0856 C.2     
   5 N5            -2.3876     1.3803     0.0079 N.am    
   6 C6            -2.0503     0.6747     1.1034 C.2     
   7 C7            -0.4523    -0.7912     2.2934 C.1     
   8 N8            -0.1529    -1.3868     3.2133 N.1     
   9 N9             1.1960    -0.6894    -0.0135 N.pl3   
  10 O10           -2.7908     0.6601     2.0721 O.2     
  11 C11           -3.6513     2.1211    -0.0078 C.3     
  12 C12           -4.7644     1.2193    -0.5452 C.3     
  13 C13           -6.0843     1.9930    -0.5616 C.3     
  14 C14            1.2257    -2.1564     0.0884 C.3     
  15 C15            2.0846    -2.7064    -1.0553 C.3     
  16 N16            3.4012    -2.0553    -1.0315 N.3     
  17 C17            3.2853    -0.6100    -1.2672 C.3     
  18 C18            2.4752     0.0255    -0.1384 C.3     
  19 C19            4.3128    -2.6756    -2.0021 C.3     
  20 C20           -7.1703     1.1350    -1.2138 C.3     
  21 C21           -6.4948     2.3318     0.8728 C.3     
  22 O22            5.3154    -1.7318    -2.3845 O.3     
  23 C23            6.3568    -1.5573    -1.5291 C.ar    
  24 C24            6.4127    -2.2795    -0.3462 C.ar    
  25 C25            7.4726    -2.1002     0.5219 C.ar    
  26 C26            8.4768    -1.2020     0.2123 C.ar    
  27 C27            8.4232    -0.4805    -0.9662 C.ar    
  28 C28            7.3690    -0.6606    -1.8402 C.ar    
  29 C29            9.5194     0.4982    -1.3003 C.3     
  30 H30            0.2151     0.7891    -1.9961 H       
  31 H31           -1.8867     1.9875    -1.9489 H       
  32 H32           -3.8986     2.4393     1.0049 H       
  33 H33           -3.5514     2.9965    -0.6495 H       
  34 H34           -4.5172     0.9011    -1.5579 H       
  35 H35           -4.8644     0.3439     0.0965 H       
  36 H36           -5.9584     2.9142    -1.1307 H       
  37 H37            1.6592    -2.4483     1.0449 H       
  38 H38            0.2124    -2.5497     0.0071 H       
  39 H39            2.2086    -3.7823    -0.9320 H       
  40 H40            1.5954    -2.5030    -2.0079 H       
  41 H41            4.2800    -0.1655    -1.2977 H       
  42 H42            2.7793    -0.4358    -2.2169 H       
  43 H43            2.2892     1.0749    -0.3671 H       
  44 H44            3.0264    -0.0559     0.7985 H       
  45 H45            4.7873    -3.5465    -1.5499 H       
  46 H46            3.7501    -2.9849    -2.8829 H       
  47 H47           -7.2962     0.2139    -0.6448 H       
  48 H48           -8.1106     1.6862    -1.2255 H       
  49 H49           -6.8778     0.8937    -2.2357 H       
  50 H50           -5.7211     2.9430     1.3374 H       
  51 H51           -7.4351     2.8829     0.8611 H       
  52 H52           -6.6207     1.4106     1.4418 H       
  53 H53            5.6282    -2.9811    -0.1037 H       
  54 H54            7.5164    -2.6620     1.4432 H       
  55 H55            9.3045    -1.0633     0.8921 H       
  56 H56            7.3277    -0.0972    -2.7607 H       
  57 H57           10.3030    -0.0115    -1.8610 H       
  58 H58            9.1109     1.3096    -1.9026 H       
  59 H59            9.9372     0.9042    -0.3791 H       
@<TRIPOS>BOND
   1    1    2 2
   2    1    7 1
   3    1    6 1
   4    2    3 1
   5    2    9 1
   6    3    4 2
   7    3   30 1
   8    4    5 1
   9    4   31 1
  10    5   11 1
  11    5    6 am
  12    6   10 2
  13    7    8 3
  14    9   14 1
  15    9   18 1
  16   11   12 1
  17   11   32 1
  18   11   33 1
  19   12   13 1
  20   12   34 1
  21   12   35 1
  22   13   20 1
  23   13   21 1
  24   13   36 1
  25   14   15 1
  26   14   37 1
  27   14   38 1
  28   15   16 1
  29   15   39 1
  30   15   40 1
  31   16   17 1
  32   16   19 1
  33   17   18 1
  34   17   41 1
  35   17   42 1
  36   18   43 1
  37   18   44 1
  38   19   22 1
  39   19   45 1
  40   19   46 1
  41   20   47 1
  42   20   48 1
  43   20   49 1
  44   21   50 1
  45   21   51 1
  46   21   52 1
  47   22   23 1
  48   23   24 ar
  49   23   28 ar
  50   24   25 ar
  51   24   53 1
  52   25   26 ar
  53   25   54 1
  54   26   27 ar
  55   26   55 1
  56   27   28 ar
  57   27   29 1
  58   28   56 1
  59   29   57 1
  60   29   58 1
  61   29   59 1

#	End of record

