#	Name: ASD01911371
#	Creating user name:	WinNT
#	Creation time:	15. 06. 2019 19:57

#	Modifying user name:	WinNT
#	Modification time:	15. 06. 2019 19:57

#	Program:	/corina/corina34_cracker 3.40 0067  02.08.2006

@<TRIPOS>MOLECULE
ASD01911371
  41   44    0    0    0
SMALL
NO_CHARGES


@<TRIPOS>ATOM
   1 C1            -0.0173     1.4278     0.0099 C.2     
   2 C2             0.0021    -0.0041     0.0020 C.1     
   3 C3             0.0180    -1.1779    -0.0044 C.1     
   4 C4             0.0374    -2.6098    -0.0123 C.ar    
   5 N5            -1.1136    -3.2820    -0.0049 N.ar    
   6 C6            -1.1407    -4.5962    -0.0107 C.ar    
   7 C7             0.0510    -5.3267    -0.0415 C.ar    
   8 C8             1.2783    -4.6523    -0.0427 C.ar    
   9 C9             1.2660    -3.2832    -0.0334 C.ar    
  10 C10           -2.4540    -5.3346     0.0374 C.3     
  11 C11           -2.3541    -6.6333    -0.7584 C.3     
  12 N12           -1.1801    -7.4049    -0.3565 N.am    
  13 C13           -0.0070    -6.7984    -0.0925 C.2     
  14 O14            0.9951    -7.4591     0.1025 O.2     
  15 C15           -1.2810    -8.8616    -0.2385 C.3     
  16 C16           -0.2900    -9.5384    -1.2017 C.3     
  17 C17            0.6739   -10.3695    -0.3300 C.3     
  18 C18           -0.1246   -10.6375     0.9698 C.3     
  19 C19           -0.8846    -9.3052     1.1849 C.3     
  20 C20            1.0861     2.2333     0.0037 C.2     
  21 C21            0.8064     3.5798     0.0128 C.2     
  22 C22           -0.4953     3.8921     0.0262 C.2     
  23 S23           -1.4656     2.4259     0.0214 S.3     
  24 H24            2.2102    -5.1979    -0.0553 H       
  25 H25            2.1928    -2.7287    -0.0339 H       
  26 H26           -2.7022    -5.5637     1.0737 H       
  27 H27           -3.2369    -4.7081    -0.3900 H       
  28 H28           -3.2503    -7.2290    -0.5853 H       
  29 H29           -2.2813    -6.3978    -1.8202 H       
  30 H30           -2.2979    -9.1845    -0.4614 H       
  31 H31           -0.8259   -10.1903    -1.8915 H       
  32 H32            0.2659    -8.7829    -1.7570 H       
  33 H33            0.9229   -11.3081    -0.8252 H       
  34 H34            1.5778    -9.8007    -0.1120 H       
  35 H35           -0.8232   -11.4626     0.8308 H       
  36 H36            0.5492   -10.8368     1.8031 H       
  37 H37           -0.2325    -8.5644     1.6476 H       
  38 H38           -1.7731    -9.4670     1.7953 H       
  39 H39            2.0938     1.8451    -0.0074 H       
  40 H40            1.5817     4.3317     0.0097 H       
  41 H41           -0.8912     4.8969     0.0353 H       
@<TRIPOS>BOND
   1    1    2 1
   2    1   20 2
   3    1   23 1
   4    2    3 3
   5    3    4 1
   6    4    5 ar
   7    4    9 ar
   8    5    6 ar
   9    6    7 ar
  10    6   10 1
  11    7    8 ar
  12    7   13 1
  13    8    9 ar
  14    8   24 1
  15    9   25 1
  16   10   11 1
  17   10   26 1
  18   10   27 1
  19   11   12 1
  20   11   28 1
  21   11   29 1
  22   12   13 am
  23   12   15 1
  24   13   14 2
  25   15   16 1
  26   15   19 1
  27   15   30 1
  28   16   17 1
  29   16   31 1
  30   16   32 1
  31   17   18 1
  32   17   33 1
  33   17   34 1
  34   18   19 1
  35   18   35 1
  36   18   36 1
  37   19   37 1
  38   19   38 1
  39   20   21 1
  40   20   39 1
  41   21   22 2
  42   21   40 1
  43   22   23 1
  44   22   41 1

#	End of record

