#	Name: ASD00842899
#	Creating user name:	WinNT
#	Creation time:	15. 06. 2019 18:45

#	Modifying user name:	WinNT
#	Modification time:	15. 06. 2019 18:45

#	Program:	/corina/corina34_cracker 3.40 0067  02.08.2006

@<TRIPOS>MOLECULE
ASD00842899
  86   91    0    0    0
SMALL
NO_CHARGES


@<TRIPOS>ATOM
   1 N1            -0.0050     1.3211     0.0356 N.ar    
   2 C2             0.0089    -0.0012     0.0186 C.ar    
   3 C3             1.2117    -0.6961    -0.0014 C.ar    
   4 C4             2.3994     0.0138    -0.0034 C.ar    
   5 C5             2.3418     1.4008     0.0148 C.ar    
   6 C6             1.1109     2.0254     0.0342 C.ar    
   7 C7             1.2227    -2.2030    -0.0203 C.3     
   8 C8             0.4753    -2.7240    -1.2293 C.2     
   9 N9             2.5989    -2.7053    -0.0115 N.am    
  10 C10            3.4472    -2.3639    -1.0016 C.2     
  11 N11            4.7405    -2.7378    -0.9396 N.am    
  12 O12            3.0456    -1.7188    -1.9507 O.2     
  13 C13            5.2673    -3.4167     0.2522 C.3     
  14 C14            6.4979    -2.6530     0.7512 C.3     
  15 C15            7.5066    -2.5163    -0.3916 C.3     
  16 C16            6.8768    -1.7215    -1.5378 C.3     
  17 C17            5.6491    -2.4797    -2.0650 C.3     
  18 N18            8.7022    -1.8134     0.0923 N.3     
  19 C19            9.7422    -1.7677    -0.9449 C.3     
  20 C20           10.9367    -0.9606    -0.4307 C.3     
  21 N21           11.4502    -1.5802     0.7990 N.3     
  22 C22           10.4102    -1.6259     1.8362 C.3     
  23 C23            9.2158    -2.4329     1.3220 C.3     
  24 C24           12.6459    -0.8772     1.2830 C.3     
  25 O25            0.7566    -2.5223    -2.3916 O.2     
  26 N26           -0.5573    -3.4523    -0.7734 N.am    
  27 C27            0.4470    -2.7533     1.1549 C.ar    
  28 C28           -0.6049    -3.4913     0.6173 C.ar    
  29 C29            0.6116    -2.6424     2.5123 C.ar    
  30 C30           -0.2873    -3.2777     3.3767 C.ar    
  31 C31           -1.3470    -4.0212     2.8434 C.ar    
  32 C32           -1.5008    -4.1261     1.4776 C.ar    
  33 F33           -2.2201    -4.6382     3.6693 F       
  34 C34           -1.0266    -5.8345    -2.0693 C.ar    
  35 C35           -1.3606    -6.8796    -1.2283 C.ar    
  36 C36           -0.2080    -6.0596    -3.1601 C.ar    
  37 C37            0.2767    -7.3299    -3.4101 C.ar    
  38 C38           -0.0569    -8.3749    -2.5689 C.ar    
  39 C39           -0.8756    -8.1498    -1.4781 C.ar    
  40 H40            0.3217    -9.3673    -2.7643 H       
  41 H41           -2.0002    -6.7037    -0.3760 H       
  42 C42           13.0042    -1.3838     2.6815 C.3     
  43 S43           -1.6503    -4.2169    -1.7548 S.o2    
  44 O44           -2.8323    -4.3853    -0.9842 O.2     
  45 O45           -1.6243    -3.5282    -2.9974 O.2     
  46 O46           -1.1625    -0.6856     0.0212 O.3     
  47 C47           -2.3649     0.0864     0.0427 C.3     
  48 C48           -3.5735    -0.8518     0.0424 C.3     
  49 F49           -3.5485    -1.6441    -1.1103 F       
  50 F50           -3.5264    -1.6732     1.1739 F       
  51 C51           -0.1241    -3.1685     4.7952 C.1     
  52 N52            0.0054    -3.0819     5.9204 N.1     
  53 H53            3.3496    -0.4994    -0.0184 H       
  54 H54            3.2503     1.9848     0.0142 H       
  55 H55            1.0606     3.1042     0.0481 H       
  56 H56            2.8995    -3.2835     0.7070 H       
  57 H57            4.5052    -3.4309     1.0314 H       
  58 H58            5.5499    -4.4378    -0.0039 H       
  59 H59            6.1977    -1.6621     1.0919 H       
  60 H60            6.9550    -3.1989     1.5765 H       
  61 H61            7.7876    -3.5072    -0.7483 H       
  62 H62            6.5730    -0.7394    -1.1756 H       
  63 H63            7.6035    -1.6045    -2.3417 H       
  64 H64            5.9656    -3.4231    -2.5099 H       
  65 H65            5.1388    -1.8734    -2.8134 H       
  66 H66           10.0637    -2.7817    -1.1825 H       
  67 H67            9.3416    -1.2935    -1.8409 H       
  68 H68           11.7211    -0.9498    -1.1874 H       
  69 H69           10.6212     0.0610    -0.2188 H       
  70 H70           10.8108    -2.1001     2.7322 H       
  71 H71           10.0888    -0.6118     2.0739 H       
  72 H72            8.4313    -2.4437     2.0787 H       
  73 H73            9.5312    -3.4545     1.1102 H       
  74 H74           13.4777    -1.0655     0.6042 H       
  75 H75           12.4460     0.1935     1.3245 H       
  76 H76            1.4328    -2.0666     2.9129 H       
  77 H77           -2.3200    -4.7011     1.0716 H       
  78 H78            0.0527    -5.2432    -3.8173 H       
  79 H79            0.9157    -7.5059    -4.2628 H       
  80 H80           -1.1365    -8.9663    -0.8211 H       
  81 H81           12.1724    -1.1955     3.3603 H       
  82 H82           13.2041    -2.4545     2.6400 H       
  83 H83           13.8914    -0.8622     3.0406 H       
  84 H84           -2.3843     0.7037     0.9408 H       
  85 H85           -2.4015     0.7264    -0.8389 H       
  86 H86           -4.4906    -0.2629     0.0588 H       
@<TRIPOS>BOND
   1    1    2 ar
   2    1    6 ar
   3    2    3 ar
   4    2   46 1
   5    3    4 ar
   6    3    7 1
   7    4    5 ar
   8    4   53 1
   9    5    6 ar
  10    5   54 1
  11    6   55 1
  12    7    8 1
  13    7    9 1
  14    7   27 1
  15    8   25 2
  16    8   26 am
  17    9   10 am
  18    9   56 1
  19   10   11 am
  20   10   12 2
  21   11   13 1
  22   11   17 1
  23   13   14 1
  24   13   57 1
  25   13   58 1
  26   14   15 1
  27   14   59 1
  28   14   60 1
  29   15   16 1
  30   15   18 1
  31   15   61 1
  32   16   17 1
  33   16   62 1
  34   16   63 1
  35   17   64 1
  36   17   65 1
  37   18   19 1
  38   18   23 1
  39   19   20 1
  40   19   66 1
  41   19   67 1
  42   20   21 1
  43   20   68 1
  44   20   69 1
  45   21   22 1
  46   21   24 1
  47   22   23 1
  48   22   70 1
  49   22   71 1
  50   23   72 1
  51   23   73 1
  52   24   42 1
  53   24   74 1
  54   24   75 1
  55   26   43 am
  56   26   28 1
  57   27   28 ar
  58   27   29 ar
  59   28   32 ar
  60   29   30 ar
  61   29   76 1
  62   30   31 ar
  63   30   51 1
  64   31   32 ar
  65   31   33 1
  66   32   77 1
  67   34   35 ar
  68   34   36 ar
  69   34   43 1
  70   35   41 1
  71   35   39 ar
  72   36   37 ar
  73   36   78 1
  74   37   38 ar
  75   37   79 1
  76   38   39 ar
  77   38   40 1
  78   39   80 1
  79   42   81 1
  80   42   82 1
  81   42   83 1
  82   43   44 2
  83   43   45 2
  84   46   47 1
  85   47   48 1
  86   47   84 1
  87   47   85 1
  88   48   49 1
  89   48   50 1
  90   48   86 1
  91   51   52 3

#	End of record

