#	Name: ASD03950082
#	Creating user name:	WinNT
#	Creation time:	15. 06. 2019 20:48

#	Modifying user name:	WinNT
#	Modification time:	15. 06. 2019 20:48

#	Program:	/corina/corina34_cracker 3.40 0067  02.08.2006

@<TRIPOS>MOLECULE
ASD03950082
  56   59    0    0    0
SMALL
NO_CHARGES


@<TRIPOS>ATOM
   1 N1            -0.0178     1.4650     0.0101 N.am    
   2 C2             0.0021    -0.0041     0.0020 C.3     
   3 C3             0.8803    -0.4916     1.1586 C.3     
   4 C4             2.2627     0.1563     1.0525 C.3     
   5 C5             2.1248     1.6768     1.1584 C.3     
   6 C6             1.2607     2.1889     0.0018 C.3     
   7 C7            -1.1868     2.1359     0.0193 C.2     
   8 O8            -2.2375     1.5256     0.0210 O.2     
   9 O9            -1.1902     3.4822     0.0266 O.3     
  10 N10            3.9431    -0.8091     4.1800 N.pl3   
  11 N11            2.9114    -0.2170     3.4446 N.2     
  12 C12            3.1403    -0.3472     2.1693 C.2     
  13 C13            4.4006    -1.0697     2.0162 C.ar    
  14 C14            5.1434    -1.4944     0.9109 C.ar    
  15 C15            6.3356    -2.1776     1.0999 C.ar    
  16 C16            6.8003    -2.4450     2.3882 C.ar    
  17 C17            6.0736    -2.0302     3.4977 C.ar    
  18 C18            4.8630    -1.3359     3.3185 C.ar    
  19 N19            8.6866    -3.5249    -1.3185 N.pl3   
  20 N20            7.7197    -2.9694    -2.1652 N.2     
  21 C21            6.7829    -2.4322    -1.4292 C.2     
  22 C22            7.1226    -2.6280    -0.0767 C.2     
  23 C23            8.3051    -3.3067    -0.0433 C.2     
  24 C24            6.5695    -2.3161     4.8574 C.2     
  25 O25            5.9315    -1.9519     5.8263 O.2     
  26 N26            7.7297    -2.9810     5.0256 N.am    
  27 C27           -2.4856     4.1381     0.0364 C.3     
  28 C28           -3.2605     3.7182     1.2870 C.3     
  29 C29           -2.2890     5.6554     0.0437 C.3     
  30 C30           -3.2723     3.7317    -1.2114 C.3     
  31 H31           -1.0118    -0.3840     0.1278 H       
  32 H32            0.4128    -0.3587    -0.9433 H       
  33 H33            0.4202    -0.2139     2.1069 H       
  34 H34            0.9816    -1.5757     1.1066 H       
  35 H35            2.7120    -0.1016     0.0934 H       
  36 H36            1.6530     1.9341     2.1067 H       
  37 H37            3.1119     2.1361     1.1062 H       
  38 H38            1.7740     2.0131    -0.9436 H       
  39 H39            1.0772     3.2560     0.1274 H       
  40 H40            3.9987    -0.8375     5.1480 H       
  41 H41            4.7893    -1.2910    -0.0890 H       
  42 H42            7.7299    -2.9777     2.5238 H       
  43 H43            9.4899    -3.9899    -1.6002 H       
  44 H44            5.9017    -1.9258    -1.7946 H       
  45 H45            8.8391    -3.6142     0.8437 H       
  46 H46            8.2386    -3.2715     4.2526 H       
  47 H47            8.0557    -3.1690     5.9196 H       
  48 H48           -2.7000     4.0076     2.1759 H       
  49 H49           -4.2329     4.2105     1.2943 H       
  50 H50           -3.4005     2.6372     1.2818 H       
  51 H51           -1.7370     5.9545    -0.8473 H       
  52 H52           -3.2615     6.1477     0.0510 H       
  53 H53           -1.7286     5.9448     0.9326 H       
  54 H54           -3.4124     2.6508    -1.2166 H       
  55 H55           -4.2448     4.2241    -1.2041 H       
  56 H56           -2.7203     4.0309    -2.1024 H       
@<TRIPOS>BOND
   1    1    2 1
   2    1    6 1
   3    1    7 am
   4    2    3 1
   5    2   31 1
   6    2   32 1
   7    3    4 1
   8    3   33 1
   9    3   34 1
  10    4    5 1
  11    4   12 1
  12    4   35 1
  13    5    6 1
  14    5   36 1
  15    5   37 1
  16    6   38 1
  17    6   39 1
  18    7    8 2
  19    7    9 1
  20    9   27 1
  21   10   11 1
  22   10   18 1
  23   10   40 1
  24   11   12 2
  25   12   13 1
  26   13   14 ar
  27   13   18 ar
  28   14   15 ar
  29   14   41 1
  30   15   16 ar
  31   15   22 1
  32   16   17 ar
  33   16   42 1
  34   17   18 ar
  35   17   24 1
  36   19   20 1
  37   19   23 1
  38   19   43 1
  39   20   21 2
  40   21   22 1
  41   21   44 1
  42   22   23 2
  43   23   45 1
  44   24   25 2
  45   24   26 am
  46   26   46 1
  47   26   47 1
  48   27   28 1
  49   27   29 1
  50   27   30 1
  51   28   48 1
  52   28   49 1
  53   28   50 1
  54   29   51 1
  55   29   52 1
  56   29   53 1
  57   30   54 1
  58   30   55 1
  59   30   56 1

#	End of record

