#	Name: ASD07260002
#	Creating user name:	WinNT
#	Creation time:	15. 06. 2019 21:09

#	Modifying user name:	WinNT
#	Modification time:	15. 06. 2019 21:09

#	Program:	/corina/corina34_cracker 3.40 0067  02.08.2006

@<TRIPOS>MOLECULE
ASD07260002
  24   23    0    0    0
SMALL
NO_CHARGES


@<TRIPOS>ATOM
   1 O1            -0.0161     1.3381     0.0094 O.3     
   2 C2             0.0021    -0.0041     0.0020 C.2     
   3 O3             1.0565    -0.5939    -0.0112 O.2     
   4 C4            -1.2926    -0.7753     0.0102 C.3     
   5 C5            -0.9927    -2.2755    -0.0007 C.3     
   6 C6            -2.3072    -3.0585     0.0077 C.3     
   7 N7            -3.0373    -2.8002    -1.2359 N.am    
   8 C8            -2.0133    -4.5322     0.1208 C.2     
   9 O9            -2.3765    -5.2891    -0.7482 O.2     
  10 O10           -1.3481    -5.0040     1.1869 O.3     
  11 C11           -4.3775    -2.9385    -1.2716 C.2     
  12 C12           -5.1286    -2.6728    -2.5508 C.3     
  13 O13           -4.9790    -3.2768    -0.2743 O.2     
  14 H14            0.8394     1.7888     0.0037 H       
  15 H15           -1.8592    -0.5245     0.9070 H       
  16 H16           -1.8762    -0.5150    -0.8728 H       
  17 H17           -0.4261    -2.5263    -0.8975 H       
  18 H18           -0.4091    -2.5358     0.8824 H       
  19 H19           -2.9129    -2.7425     0.8570 H       
  20 H20           -2.5562    -2.5296    -2.0335 H       
  21 H21           -1.1830    -5.9564     1.2151 H       
  22 H22           -5.2008    -3.5946    -3.1279 H       
  23 H23           -6.1299    -2.3118    -2.3159 H       
  24 H24           -4.5984    -1.9197    -3.1337 H       
@<TRIPOS>BOND
   1    1    2 1
   2    1   14 1
   3    2    3 2
   4    2    4 1
   5    4    5 1
   6    4   15 1
   7    4   16 1
   8    5    6 1
   9    5   17 1
  10    5   18 1
  11    6    7 1
  12    6    8 1
  13    6   19 1
  14    7   11 am
  15    7   20 1
  16    8    9 2
  17    8   10 1
  18   10   21 1
  19   11   12 1
  20   11   13 2
  21   12   22 1
  22   12   23 1
  23   12   24 1

#	End of record

