#	Name: ASD02038661
#	Creating user name:	WinNT
#	Creation time:	15. 06. 2019 20:17

#	Modifying user name:	WinNT
#	Modification time:	15. 06. 2019 20:17

#	Program:	/corina/corina34_cracker 3.40 0067  02.08.2006

@<TRIPOS>MOLECULE
ASD02038661
  48   49    0    0    0
SMALL
NO_CHARGES


@<TRIPOS>ATOM
   1 C1            -0.0090     1.3744    -0.2303 C.ar    
   2 C2            -0.0026     0.0036    -0.0172 C.ar    
   3 O3            -1.1724    -0.6894    -0.0161 O.3     
   4 C4            -1.0917    -2.0981     0.2096 C.3     
   5 C5            -2.4973    -2.7015     0.1754 C.3     
   6 C6            -2.4242    -4.1857     0.5398 C.3     
   7 N7            -3.7738    -4.7650     0.5070 N.3     
   8 C8            -3.7425    -6.1924     0.8526 C.3     
   9 C9            -5.1629    -6.7592     0.8077 C.3     
  10 C10            1.1787     2.0788    -0.2316 C.ar    
  11 C11            2.3795     1.4148    -0.0195 C.ar    
  12 C12            2.3852     0.0428     0.1937 C.ar    
  13 C13            1.1969    -0.6604     0.1942 C.ar    
  14 O14           -3.0447    -2.5596    -1.1369 O.3     
  15 N15            3.5850     2.1289    -0.0212 N.am    
  16 C16            3.6278     3.3800     0.4780 C.2     
  17 C17            4.9435     4.1088     0.5730 C.3     
  18 O18            2.6074     3.9195     0.8508 O.2     
  19 C19           -5.2629    -8.6182     2.4801 C.ar    
  20 C20           -5.2339    -9.9624     2.8060 C.ar    
  21 C21           -5.1308    -8.2236     1.1622 C.ar    
  22 C22           -4.9697    -9.1716     0.1687 C.ar    
  23 C23           -4.9405   -10.5149     0.4925 C.ar    
  24 C24           -5.0726   -10.9116     1.8112 C.ar    
  25 Cl25          -5.0366   -12.5988     2.2183 Cl      
  26 Cl26          -5.3993   -10.4586     4.4613 Cl      
  27 H27           -0.9427     1.8900    -0.3997 H       
  28 H28           -0.4806    -2.5563    -0.5681 H       
  29 H29           -0.6398    -2.2847     1.1838 H       
  30 H30           -3.1331    -2.1822     0.8924 H       
  31 H31           -1.7883    -4.7050    -0.1772 H       
  32 H32           -2.0066    -4.2938     1.5408 H       
  33 H33           -4.3993    -4.2591     1.1160 H       
  34 H34           -3.1158    -6.7256     0.1377 H       
  35 H35           -3.3340    -6.3145     1.8557 H       
  36 H36           -5.7896    -6.2260     1.5226 H       
  37 H37           -5.5713    -6.6371    -0.1955 H       
  38 H38            1.1736     3.1459    -0.3979 H       
  39 H39            3.3190    -0.4743     0.3583 H       
  40 H40            1.2012    -1.7276     0.3601 H       
  41 H41           -2.5292    -2.9980    -1.8277 H       
  42 H42            4.3888     1.7227    -0.3816 H       
  43 H43            5.7410     3.4698     0.1938 H       
  44 H44            4.8966     5.0221    -0.0202 H       
  45 H45            5.1444     4.3616     1.6141 H       
  46 H46           -5.3932    -7.8774     3.2552 H       
  47 H47           -4.8669    -8.8622    -0.8609 H       
  48 H48           -4.8150   -11.2549    -0.2841 H       
@<TRIPOS>BOND
   1    1    2 ar
   2    1   10 ar
   3    1   27 1
   4    2    3 1
   5    2   13 ar
   6    3    4 1
   7    4    5 1
   8    4   28 1
   9    4   29 1
  10    5    6 1
  11    5   14 1
  12    5   30 1
  13    6    7 1
  14    6   31 1
  15    6   32 1
  16    7    8 1
  17    7   33 1
  18    8    9 1
  19    8   34 1
  20    8   35 1
  21    9   21 1
  22    9   36 1
  23    9   37 1
  24   10   11 ar
  25   10   38 1
  26   11   12 ar
  27   11   15 1
  28   12   13 ar
  29   12   39 1
  30   13   40 1
  31   14   41 1
  32   15   16 am
  33   15   42 1
  34   16   17 1
  35   16   18 2
  36   17   43 1
  37   17   44 1
  38   17   45 1
  39   19   21 ar
  40   19   20 ar
  41   19   46 1
  42   20   26 1
  43   20   24 ar
  44   21   22 ar
  45   22   23 ar
  46   22   47 1
  47   23   24 ar
  48   23   48 1
  49   24   25 1

#	End of record

