#	Name: ASD01916580
#	Creating user name:	WinNT
#	Creation time:	15. 06. 2019 20:07

#	Modifying user name:	WinNT
#	Modification time:	15. 06. 2019 20:07

#	Program:	/corina/corina34_cracker 3.40 0067  02.08.2006

@<TRIPOS>MOLECULE
ASD01916580
  42   45    0    0    0
SMALL
NO_CHARGES


@<TRIPOS>ATOM
   1 C1            -0.0171     1.4099     0.0098 C.ar    
   2 C2             0.0021    -0.0041     0.0020 C.ar    
   3 C3            -1.1919    -0.7258     0.0121 C.ar    
   4 C4            -2.3849    -0.0646     0.0315 C.ar    
   5 C5            -2.4223     1.3380     0.0390 C.ar    
   6 C6            -1.2411     2.0762     0.0308 C.ar    
   7 N7             1.1589     2.0866     0.0022 N.2     
   8 C8             2.3039     1.4740    -0.0092 C.2     
   9 N9             2.4093     0.1107    -0.0136 N.am    
  10 C10            1.3117    -0.6724    -0.0143 C.2     
  11 C11           -3.6838     2.0153     0.0586 C.1     
  12 O12            1.4015    -1.8865    -0.0275 O.2     
  13 C13           -4.7180     2.5706     0.0747 C.1     
  14 C14           -5.9795     3.2480     0.0944 C.ar    
  15 C15           -6.0152     4.6433     0.1018 C.ar    
  16 C16           -7.2550     5.2860     0.1210 C.ar    
  17 C17           -8.4114     4.4959     0.1319 C.ar    
  18 C18           -8.2892     3.1193     0.1235 C.ar    
  19 N19           -7.1062     2.5420     0.0999 N.ar    
  20 C20            3.5856     2.2787    -0.0225 C.3     
  21 C21            4.2186     2.1861    -1.4086 C.3     
  22 C22            5.1322     0.9775    -1.5160 C.3     
  23 C23            4.3685    -0.3308    -1.4013 C.3     
  24 C24            3.7503    -0.4870    -0.0136 C.3     
  25 C25           -7.3416     6.7154     0.1297 C.1     
  26 N26           -7.4102     7.8493     0.1367 N.1     
  27 H27           -1.1717    -1.8056     0.0042 H       
  28 H28           -3.3080    -0.6251     0.0408 H       
  29 H29           -1.2736     3.1557     0.0355 H       
  30 H30           -5.0996     5.2161     0.0932 H       
  31 H31           -9.3878     4.9573     0.1472 H       
  32 H32           -9.1789     2.5071     0.1319 H       
  33 H33            3.3642     3.3208     0.2081 H       
  34 H34            4.2752     1.8783     0.7206 H       
  35 H35            3.4301     2.1053    -2.1567 H       
  36 H36            4.7980     3.0897    -1.5978 H       
  37 H37            5.6440     1.0052    -2.4779 H       
  38 H38            5.8756     1.0241    -0.7202 H       
  39 H39            3.5764    -0.3492    -2.1498 H       
  40 H40            5.0512    -1.1606    -1.5840 H       
  41 H41            4.3747     0.0192     0.7225 H       
  42 H42            3.6772    -1.5456     0.2356 H       
@<TRIPOS>BOND
   1    1    2 ar
   2    1    7 1
   3    1    6 ar
   4    2    3 ar
   5    2   10 1
   6    3    4 ar
   7    3   27 1
   8    4    5 ar
   9    4   28 1
  10    5    6 ar
  11    5   11 1
  12    6   29 1
  13    7    8 2
  14    8    9 1
  15    8   20 1
  16    9   10 am
  17    9   24 1
  18   10   12 2
  19   11   13 3
  20   13   14 1
  21   14   15 ar
  22   14   19 ar
  23   15   16 ar
  24   15   30 1
  25   16   25 1
  26   16   17 ar
  27   17   18 ar
  28   17   31 1
  29   18   19 ar
  30   18   32 1
  31   20   21 1
  32   20   33 1
  33   20   34 1
  34   21   22 1
  35   21   35 1
  36   21   36 1
  37   22   23 1
  38   22   37 1
  39   22   38 1
  40   23   24 1
  41   23   39 1
  42   23   40 1
  43   24   41 1
  44   24   42 1
  45   25   26 3

#	End of record

