#	Name: ASD01410434
#	Creating user name:	WinNT
#	Creation time:	15. 06. 2019 19:17

#	Modifying user name:	WinNT
#	Modification time:	15. 06. 2019 19:17

#	Program:	/corina/corina34_cracker 3.40 0067  02.08.2006

@<TRIPOS>MOLECULE
ASD01410434
  57   62    0    0    0
SMALL
NO_CHARGES


@<TRIPOS>ATOM
   1 C1            -2.5965     4.6071    -2.8214 C.ar    
   2 C2            -3.2404     4.1462    -3.9685 C.ar    
   3 C3            -4.3079     3.2780    -3.8588 C.ar    
   4 C4            -4.7417     2.8636    -2.6134 C.ar    
   5 C5            -4.1063     3.3184    -1.4660 C.ar    
   6 C6            -3.0296     4.1848    -1.5674 C.ar    
   7 C7            -2.3383     4.6797    -0.3231 C.3     
   8 O8            -4.5364     2.9093    -0.2436 O.3     
   9 C9            -5.5664     2.0236    -0.1930 C.ar    
  10 C10           -5.3248     0.6682    -0.3998 C.ar    
  11 C11           -6.3567    -0.2447    -0.3523 C.ar    
  12 C12           -7.6498     0.1898    -0.0955 C.ar    
  13 C13           -7.8971     1.5590     0.1144 C.ar    
  14 C14           -6.8479     2.4731     0.0693 C.ar    
  15 F15           -2.4346     3.7102     0.6808 F       
  16 F16           -0.9904     4.9265    -0.6053 F       
  17 F17           -2.9480     5.8619     0.1103 F       
  18 N18           -8.7171    -0.6862    -0.0389 N.pl3   
  19 C19           -9.9580    -0.2342     0.2105 C.2     
  20 N20          -10.2378     1.0237     0.4115 N.2     
  21 C21           -9.2854     1.9750     0.3827 C.2     
  22 O22           -9.5634     3.1466     0.5731 O.2     
  23 C23           -8.4943    -2.1183    -0.2528 C.3     
  24 C24           -8.3215    -2.8041     1.0779 C.ar    
  25 C25           -9.4330    -3.1871     1.8088 C.ar    
  26 C26           -9.2742    -3.8171     3.0312 C.ar    
  27 C27           -8.0039    -4.0644     3.5226 C.ar    
  28 C28           -6.8923    -3.6821     2.7913 C.ar    
  29 C29           -7.0511    -3.0561     1.5668 C.ar    
  30 F30           -5.9663    -2.6831     0.8532 F       
  31 F31           -7.8489    -4.6783     4.7160 F       
  32 F32          -10.6727    -2.9458     1.3292 F       
  33 C33           -1.4487     5.5406    -2.9367 C.ar    
  34 C34           -1.4265     6.7144    -2.1771 C.ar    
  35 C35           -0.3763     7.5824    -2.2735 C.ar    
  36 C36            0.6814     7.3042    -3.1302 C.ar    
  37 C37            0.6745     6.1285    -3.9007 C.ar    
  38 C38           -0.3989     5.2426    -3.7937 C.ar    
  39 N39            1.8554     7.9586    -3.4462 N.pl3   
  40 C40            2.5094     7.1971    -4.3643 C.2     
  41 N41            1.8197     6.1267    -4.6309 N.2     
  42 H42           -2.9044     4.4685    -4.9429 H       
  43 H43           -4.8058     2.9216    -4.7485 H       
  44 H44           -5.5776     2.1845    -2.5327 H       
  45 H45           -4.3192     0.3287    -0.5997 H       
  46 H46           -6.1598    -1.2941    -0.5146 H       
  47 H47           -7.0343     3.5247     0.2299 H       
  48 H48          -10.7658    -0.9501     0.2460 H       
  49 H49           -9.3515    -2.5456    -0.7731 H       
  50 H50           -7.5964    -2.2605    -0.8542 H       
  51 H51          -10.1414    -4.1152     3.6017 H       
  52 H52           -5.9012    -3.8747     3.1748 H       
  53 H53           -2.2460     6.9365    -1.5095 H       
  54 H54           -0.3683     8.4866    -1.6830 H       
  55 H55           -0.4162     4.3357    -4.3799 H       
  56 H56            2.1578     8.8049    -3.0812 H       
  57 H57            3.4624     7.4453    -4.8078 H       
@<TRIPOS>BOND
   1    1    2 ar
   2    1   33 1
   3    1    6 ar
   4    2    3 ar
   5    2   42 1
   6    3    4 ar
   7    3   43 1
   8    4    5 ar
   9    4   44 1
  10    5    6 ar
  11    5    8 1
  12    6    7 1
  13    7   15 1
  14    7   16 1
  15    7   17 1
  16    8    9 1
  17    9   10 ar
  18    9   14 ar
  19   10   11 ar
  20   10   45 1
  21   11   12 ar
  22   11   46 1
  23   12   13 ar
  24   12   18 1
  25   13   14 ar
  26   13   21 1
  27   14   47 1
  28   18   19 1
  29   18   23 1
  30   19   20 2
  31   19   48 1
  32   20   21 1
  33   21   22 2
  34   23   24 1
  35   23   49 1
  36   23   50 1
  37   24   25 ar
  38   24   29 ar
  39   25   26 ar
  40   25   32 1
  41   26   27 ar
  42   26   51 1
  43   27   28 ar
  44   27   31 1
  45   28   29 ar
  46   28   52 1
  47   29   30 1
  48   33   34 ar
  49   33   38 ar
  50   34   35 ar
  51   34   53 1
  52   35   36 ar
  53   35   54 1
  54   36   37 ar
  55   36   39 1
  56   37   38 ar
  57   37   41 1
  58   38   55 1
  59   39   40 1
  60   39   56 1
  61   40   41 2
  62   40   57 1

#	End of record

