#	Name: ASD01410799
#	Creating user name:	WinNT
#	Creation time:	15. 06. 2019 19:18

#	Modifying user name:	WinNT
#	Modification time:	15. 06. 2019 19:18

#	Program:	/corina/corina34_cracker 3.40 0067  02.08.2006

@<TRIPOS>MOLECULE
ASD01410799
  36   38    0    0    0
SMALL
NO_CHARGES


@<TRIPOS>ATOM
   1 N1            -0.0158     1.3171     0.0093 N.ar    
   2 C2             0.0021    -0.0041     0.0020 C.ar    
   3 C3             1.2097    -0.7206    -0.0134 C.ar    
   4 C4             2.3975    -0.0490    -0.0211 C.ar    
   5 C5             2.3690     1.3612    -0.0132 C.ar    
   6 C6             3.5555     2.1102    -0.0209 C.ar    
   7 C7             3.4995     3.4701    -0.0136 C.ar    
   8 C8             2.2708     4.1363     0.0016 C.ar    
   9 C9             1.0876     3.4316     0.0100 C.ar    
  10 C10            1.1165     2.0262     0.0023 C.ar    
  11 O11            2.2435     5.4947     0.0087 O.3     
  12 C12            3.5033     6.1690    -0.0001 C.3     
  13 S13           -1.4434    -2.4979     0.0036 S.3     
  14 C14           -1.2770    -0.7440     0.0107 C.2     
  15 N15           -2.4624    -0.2042     0.0257 N.2     
  16 C16           -3.4894    -1.0189     0.0322 C.2     
  17 C17           -3.1975    -2.3260     0.0226 C.2     
  18 C18           -4.9099    -0.5161     0.0499 C.3     
  19 C19           -5.4480    -0.4573    -1.3811 C.3     
  20 C20           -5.7761    -1.4639     0.8819 C.3     
  21 Cl21          -0.4303     4.2738     0.0300 Cl      
  22 Cl22           3.9057    -0.9084    -0.0395 Cl      
  23 H23            1.1983    -1.8005    -0.0187 H       
  24 H24            4.5118     1.6084    -0.0323 H       
  25 H25            4.4159     4.0416    -0.0192 H       
  26 H26            3.3388     7.2465     0.0068 H       
  27 H27            4.0747     5.8830     0.8829 H       
  28 H28            4.0575     5.8918    -0.8969 H       
  29 H29           -3.9132    -3.1349     0.0256 H       
  30 H30           -4.9369     0.4810     0.4895 H       
  31 H31           -4.8309     0.2179    -1.9739 H       
  32 H32           -5.4210    -1.4544    -1.8207 H       
  33 H33           -6.4754    -0.0936    -1.3683 H       
  34 H34           -5.3928    -1.5057     1.9015 H       
  35 H35           -6.8036    -1.1002     0.8947 H       
  36 H36           -5.7491    -2.4609     0.4424 H       
@<TRIPOS>BOND
   1    1    2 ar
   2    1   10 ar
   3    2    3 ar
   4    2   14 1
   5    3    4 ar
   6    3   23 1
   7    4    5 ar
   8    4   22 1
   9    5    6 ar
  10    5   10 ar
  11    6    7 ar
  12    6   24 1
  13    7    8 ar
  14    7   25 1
  15    8    9 ar
  16    8   11 1
  17    9   10 ar
  18    9   21 1
  19   11   12 1
  20   12   26 1
  21   12   27 1
  22   12   28 1
  23   13   14 1
  24   13   17 1
  25   14   15 2
  26   15   16 1
  27   16   17 2
  28   16   18 1
  29   17   29 1
  30   18   19 1
  31   18   20 1
  32   18   30 1
  33   19   31 1
  34   19   32 1
  35   19   33 1
  36   20   34 1
  37   20   35 1
  38   20   36 1

#	End of record

