#	Name: ASD01883928
#	Creating user name:	WinNT
#	Creation time:	15. 06. 2019 19:47

#	Modifying user name:	WinNT
#	Modification time:	15. 06. 2019 19:47

#	Program:	/corina/corina34_cracker 3.40 0067  02.08.2006

@<TRIPOS>MOLECULE
ASD01883928
  54   58    0    0    0
SMALL
NO_CHARGES


@<TRIPOS>ATOM
   1 C1            -0.9632     0.3295    -3.3020 C.2     
   2 C2            -1.0237    -1.0258    -2.9335 C.2     
   3 C3            -1.2717    -1.3513    -1.6271 C.2     
   4 C4            -1.4614    -0.3243    -0.6773 C.2     
   5 C5            -1.3991     0.9683    -1.0526 C.2     
   6 N6            -1.1590     1.3036    -2.3534 N.pl3   
   7 N7            -0.7476     0.9516    -4.4512 N.2     
   8 N8            -0.7925     2.2241    -4.2663 N.2     
   9 C9            -1.0399     2.4925    -3.0112 C.2     
  10 Cl10          -0.7876    -2.2709    -4.1201 Cl      
  11 N11           -1.3369    -2.6870    -1.2376 N.pl3   
  12 C12           -1.1721     3.8648    -2.4026 C.3     
  13 C13           -2.5936    -3.2603    -0.7369 C.3     
  14 C14           -2.3308    -3.9106     0.6250 C.3     
  15 C15           -1.1884    -4.9202     0.4918 C.3     
  16 C16            0.0851    -4.1966     0.0483 C.3     
  17 C17           -0.1518    -3.5510    -1.3255 C.3     
  18 C18           -0.9460    -5.5968     1.8425 C.3     
  19 C19            0.1984     4.3419    -1.9177 C.3     
  20 C20            0.2976     5.7678    -1.3720 C.3     
  21 C21            0.3742     4.5757    -0.4159 C.3     
  22 C22            0.0849    -6.6842     1.6819 C.ar    
  23 C23           -0.3055    -7.9368     1.2470 C.ar    
  24 C24            0.6508    -8.9300     1.1022 C.ar    
  25 C25            1.9700    -8.6246     1.4014 C.ar    
  26 C26            2.2853    -7.3497     1.8310 C.ar    
  27 N27            1.3497    -6.4281     1.9525 N.ar    
  28 C28           -1.7525    -8.2195     0.9349 C.3     
  29 H29           -1.6576    -0.5758     0.3545 H       
  30 H30           -1.5460     1.7463    -0.3180 H       
  31 H31           -1.5545     4.5589    -3.1511 H       
  32 H32           -1.8617     3.8235    -1.5595 H       
  33 H33           -3.3373    -2.4710    -0.6276 H       
  34 H34           -2.9565    -4.0127    -1.4371 H       
  35 H35           -2.0551    -3.1426     1.3477 H       
  36 H36           -3.2314    -4.4228     0.9635 H       
  37 H37           -1.4545    -5.6740    -0.2491 H       
  38 H38            0.3380    -3.4259     0.7764 H       
  39 H39            0.9039    -4.9124    -0.0238 H       
  40 H40           -0.3146    -4.3288    -2.0716 H       
  41 H41            0.7159    -2.9521    -1.6023 H       
  42 H42           -0.5867    -4.8585     2.5594 H       
  43 H43           -1.8783    -6.0306     2.2041 H       
  44 H44            1.0539     3.9539    -2.4705 H       
  45 H45            1.2186     6.3178    -1.5655 H       
  46 H46           -0.6135     6.3660    -1.3585 H       
  47 H47           -0.4864     4.3897     0.2266 H       
  48 H48            1.3456     4.3415     0.0195 H       
  49 H49            0.3749    -9.9181     0.7646 H       
  50 H50            2.7411    -9.3740     1.3003 H       
  51 H51            3.3103    -7.1039     2.0660 H       
  52 H52           -1.9631    -7.9389    -0.0971 H       
  53 H53           -1.9525    -9.2824     1.0706 H       
  54 H54           -2.3884    -7.6416     1.6055 H       
@<TRIPOS>BOND
   1    1    2 1
   2    1    7 2
   3    1    6 1
   4    2    3 2
   5    2   10 1
   6    3    4 1
   7    3   11 1
   8    4    5 2
   9    4   29 1
  10    5    6 1
  11    5   30 1
  12    6    9 1
  13    7    8 1
  14    8    9 2
  15    9   12 1
  16   11   13 1
  17   11   17 1
  18   12   19 1
  19   12   31 1
  20   12   32 1
  21   13   14 1
  22   13   33 1
  23   13   34 1
  24   14   15 1
  25   14   35 1
  26   14   36 1
  27   15   16 1
  28   15   18 1
  29   15   37 1
  30   16   17 1
  31   16   38 1
  32   16   39 1
  33   17   40 1
  34   17   41 1
  35   18   22 1
  36   18   42 1
  37   18   43 1
  38   19   20 1
  39   19   21 1
  40   19   44 1
  41   20   21 1
  42   20   45 1
  43   20   46 1
  44   21   47 1
  45   21   48 1
  46   22   23 ar
  47   22   27 ar
  48   23   24 ar
  49   23   28 1
  50   24   25 ar
  51   24   49 1
  52   25   26 ar
  53   25   50 1
  54   26   27 ar
  55   26   51 1
  56   28   52 1
  57   28   53 1
  58   28   54 1

#	End of record

