#	Name: ASD04910421
#	Creating user name:	WinNT
#	Creation time:	15. 06. 2019 20:55

#	Modifying user name:	WinNT
#	Modification time:	15. 06. 2019 20:55

#	Program:	/corina/corina34_cracker 3.40 0067  02.08.2006

@<TRIPOS>MOLECULE
ASD04910421
  65   68    0    0    0
SMALL
NO_CHARGES


@<TRIPOS>ATOM
   1 C1             0.9540     1.6217     0.9164 C.2     
   2 C2             0.8149     0.1278     0.7752 C.3     
   3 C3             2.2036    -0.5069     0.6791 C.3     
   4 O4             2.0514     2.1269     0.9380 O.2     
   5 O5            -0.1413     2.3917     1.0127 O.3     
   6 C6             3.1680    -2.7317     0.4396 C.2     
   7 C7             3.0315    -4.1973     0.3010 C.ar    
   8 C8             4.1682    -5.0003     0.1949 C.ar    
   9 C9             4.0338    -6.3673     0.0664 C.ar    
  10 C10            2.7757    -6.9425     0.0421 C.ar    
  11 C11            1.6449    -6.1523     0.1468 C.ar    
  12 C12            1.7654    -4.7846     0.2816 C.ar    
  13 O13            4.2720    -2.2235     0.4613 O.2     
  14 N14            2.0684    -1.9592     0.5418 N.am    
  15 C15            2.6366    -8.4364    -0.0996 C.3     
  16 C16            2.3756    -9.0569     1.2743 C.3     
  17 N17            1.5161    -8.7399    -0.9933 N.pl3   
  18 C18            2.1858    -8.8444    -5.0595 C.ar    
  19 C19            0.9369    -9.2284    -4.5869 C.ar    
  20 C20            0.6929    -9.2003    -3.2256 C.ar    
  21 C21            1.7172    -8.7848    -2.3764 C.ar    
  22 C22            2.9391    -8.4157    -2.9214 C.ar    
  23 N23            3.1353    -8.4553    -4.2248 N.ar    
  24 N24            2.4441    -8.8749    -6.4347 N.pl3   
  25 N25            1.5447    -9.2664    -7.4350 N.2     
  26 C26            2.1472    -9.1613    -8.5917 C.2     
  27 C27            3.4495    -8.7000    -8.3702 C.2     
  28 C28            3.6093    -8.5249    -7.0380 C.2     
  29 C29            4.4890    -8.4382    -9.4294 C.3     
  30 F30            3.9541    -8.7276   -10.6893 F       
  31 F31            4.8731    -7.0937    -9.3834 F       
  32 F32            5.6046    -9.2501    -9.1986 F       
  33 C33            2.2577   -10.5899     1.2456 C.3     
  34 C34            3.0573   -10.5975     2.5592 C.3     
  35 C35            3.6487    -9.2491     2.1153 C.3     
  36 C36            2.1818   -10.5006     3.8102 C.3     
  37 C37            4.0907   -11.7227     2.6412 C.3     
  38 H38            0.2919    -0.2721     1.6439 H       
  39 H39            0.2477    -0.1005    -0.1272 H       
  40 H40            2.7266    -0.1070    -0.1896 H       
  41 H41            2.7708    -0.2785     1.5815 H       
  42 H42           -0.0017     3.3444     1.1017 H       
  43 H43            5.1508    -4.5524     0.2131 H       
  44 H44            4.9126    -6.9897    -0.0158 H       
  45 H45            0.6657    -6.6076     0.1271 H       
  46 H46            0.8820    -4.1693     0.3678 H       
  47 H47            1.1874    -2.3647     0.5245 H       
  48 H48            3.5555    -8.8490    -0.5160 H       
  49 H49            1.5648    -8.5666     1.8131 H       
  50 H50            0.6347    -8.9097    -0.6256 H       
  51 H51            0.1659    -9.5446    -5.2740 H       
  52 H52           -0.2686    -9.4930    -2.8301 H       
  53 H53            3.7382    -8.0925    -2.2707 H       
  54 H54            1.7132    -9.3914    -9.5535 H       
  55 H55            4.5028    -8.1730    -6.5437 H       
  56 H56            1.2352   -10.9513     1.3548 H       
  57 H57            2.7845   -11.0528     0.4111 H       
  58 H58            4.5558    -9.3454     1.5186 H       
  59 H59            3.7491    -8.5281     2.9266 H       
  60 H60            1.4973   -11.3483     3.8412 H       
  61 H61            2.8141   -10.5116     4.6979 H       
  62 H62            1.6102    -9.5729     3.7827 H       
  63 H63            4.8062   -11.6191     1.8255 H       
  64 H64            4.6158   -11.6650     3.5946 H       
  65 H65            3.5863   -12.6857     2.5619 H       
@<TRIPOS>BOND
   1    1    2 1
   2    1    4 2
   3    1    5 1
   4    2    3 1
   5    2   38 1
   6    2   39 1
   7    3   14 1
   8    3   40 1
   9    3   41 1
  10    5   42 1
  11    6    7 1
  12    6   13 2
  13    6   14 am
  14    7    8 ar
  15    7   12 ar
  16    8    9 ar
  17    8   43 1
  18    9   10 ar
  19    9   44 1
  20   10   11 ar
  21   10   15 1
  22   11   12 ar
  23   11   45 1
  24   12   46 1
  25   14   47 1
  26   15   16 1
  27   15   17 1
  28   15   48 1
  29   16   33 1
  30   16   35 1
  31   16   49 1
  32   17   21 1
  33   17   50 1
  34   18   19 ar
  35   18   23 ar
  36   18   24 1
  37   19   20 ar
  38   19   51 1
  39   20   21 ar
  40   20   52 1
  41   21   22 ar
  42   22   23 ar
  43   22   53 1
  44   24   25 1
  45   24   28 1
  46   25   26 2
  47   26   27 1
  48   26   54 1
  49   27   28 2
  50   27   29 1
  51   28   55 1
  52   29   30 1
  53   29   31 1
  54   29   32 1
  55   33   34 1
  56   33   56 1
  57   33   57 1
  58   34   35 1
  59   34   36 1
  60   34   37 1
  61   35   58 1
  62   35   59 1
  63   36   60 1
  64   36   61 1
  65   36   62 1
  66   37   63 1
  67   37   64 1
  68   37   65 1

#	End of record

