#	Name: ASD01815690
#	Creating user name:	WinNT
#	Creation time:	15. 06. 2019 19:33

#	Modifying user name:	WinNT
#	Modification time:	15. 06. 2019 19:33

#	Program:	/corina/corina34_cracker 3.40 0067  02.08.2006

@<TRIPOS>MOLECULE
ASD01815690
  60   64    0    0    0
SMALL
NO_CHARGES


@<TRIPOS>ATOM
   1 C1            -0.0168     1.3869     0.0097 C.ar    
   2 C2             0.0021    -0.0041     0.0020 C.ar    
   3 C3             1.1801    -0.6897    -0.0129 C.ar    
   4 C4             2.3948     0.0129    -0.0207 C.ar    
   5 C5             2.3717     1.4290    -0.0129 C.ar    
   6 C6             1.1455     2.1015     0.0024 C.ar    
   7 C7             3.6293    -0.6694    -0.0365 C.ar    
   8 C8             4.8031     0.0063    -0.0446 C.ar    
   9 C9             4.8359     1.4095    -0.0374 C.ar    
  10 C10            3.6406     2.1511    -0.0211 C.ar    
  11 C11            6.1026     2.1526    -0.0470 C.2     
  12 N12            6.0328     3.5041    -0.0399 N.am    
  13 C13            4.8302     4.1313    -0.0241 C.2     
  14 N14            3.6961     3.4935    -0.0158 N.2     
  15 O15            7.1745     1.5748    -0.0604 O.2     
  16 C16            7.2655     4.2957    -0.0490 C.3     
  17 C17            7.3196     5.1740     1.2048 C.3     
  18 C18            8.5708     6.0543     1.1481 C.3     
  19 O19            8.5445     6.8410    -0.0446 O.3     
  20 C20            8.5410     6.0734    -1.2500 C.3     
  21 C21            7.2886     5.1938    -1.2896 C.3     
  22 O22            7.3717     4.3444     2.3672 O.3     
  23 C23            3.6424    -2.1763    -0.0442 C.3     
  24 C24            3.5087    -2.6726    -1.4608 C.ar    
  25 C25            4.6371    -2.8921    -2.2348 C.ar    
  26 C26            4.4700    -3.3493    -3.5328 C.ar    
  27 C27            3.1809    -3.5709    -4.0113 C.ar    
  28 N28            2.1261    -3.3481    -3.2369 N.ar    
  29 C29            2.2561    -2.9195    -2.0005 C.ar    
  30 C30            2.9853    -4.0590    -5.3965 C.2     
  31 O31            3.9473    -4.2643    -6.1099 O.2     
  32 N32            1.7403    -4.2754    -5.8653 N.am    
  33 C33            1.5469    -4.7580    -7.2349 C.3     
  34 C34            0.5805    -4.0279    -5.0052 C.3     
  35 H35           -0.9630     1.9076     0.0169 H       
  36 H36           -0.9305    -0.5488     0.0083 H       
  37 H37            1.1786    -1.7697    -0.0183 H       
  38 H38            1.1188     3.1811     0.0081 H       
  39 H39            5.7317    -0.5451    -0.0563 H       
  40 H40            4.8132     5.2111    -0.0182 H       
  41 H41            8.1272     3.6284    -0.0642 H       
  42 H42            6.4318     5.8051     1.2460 H       
  43 H43            8.5922     6.7121     2.0170 H       
  44 H44            9.4596     5.4232     1.1477 H       
  45 H45            8.5409     6.7448    -2.1086 H       
  46 H46            9.4294     5.4425    -1.2817 H       
  47 H47            7.3062     4.5752    -2.1869 H       
  48 H48            6.4002     5.8253    -1.2987 H       
  49 H49            7.4077     4.8353     3.1995 H       
  50 H50            4.5813    -2.5336     0.3789 H       
  51 H51            2.8098    -2.5499     0.5518 H       
  52 H52            5.6242    -2.7108    -1.8359 H       
  53 H53            5.3272    -3.5307    -4.1642 H       
  54 H54            1.3746    -2.7497    -1.4001 H       
  55 H55            1.5411    -5.8480    -7.2386 H       
  56 H56            0.5965    -4.3882    -7.6196 H       
  57 H57            2.3593    -4.3969    -7.8655 H       
  58 H58            0.5696    -2.9809    -4.7023 H       
  59 H59           -0.3335    -4.2572    -5.5529 H       
  60 H60            0.6425    -4.6614    -4.1204 H       
@<TRIPOS>BOND
   1    1    2 ar
   2    1    6 ar
   3    1   35 1
   4    2    3 ar
   5    2   36 1
   6    3    4 ar
   7    3   37 1
   8    4    5 ar
   9    4    7 ar
  10    5    6 ar
  11    5   10 ar
  12    6   38 1
  13    7    8 ar
  14    7   23 1
  15    8    9 ar
  16    8   39 1
  17    9   10 ar
  18    9   11 1
  19   10   14 1
  20   11   12 am
  21   11   15 2
  22   12   13 1
  23   12   16 1
  24   13   14 2
  25   13   40 1
  26   16   17 1
  27   16   21 1
  28   16   41 1
  29   17   18 1
  30   17   22 1
  31   17   42 1
  32   18   19 1
  33   18   43 1
  34   18   44 1
  35   19   20 1
  36   20   21 1
  37   20   45 1
  38   20   46 1
  39   21   47 1
  40   21   48 1
  41   22   49 1
  42   23   24 1
  43   23   50 1
  44   23   51 1
  45   24   25 ar
  46   24   29 ar
  47   25   26 ar
  48   25   52 1
  49   26   27 ar
  50   26   53 1
  51   27   28 ar
  52   27   30 1
  53   28   29 ar
  54   29   54 1
  55   30   31 2
  56   30   32 am
  57   32   33 1
  58   32   34 1
  59   33   55 1
  60   33   56 1
  61   33   57 1
  62   34   58 1
  63   34   59 1
  64   34   60 1

#	End of record

