#	Name: ASD01840034
#	Creating user name:	WinNT
#	Creation time:	15. 06. 2019 19:37

#	Modifying user name:	WinNT
#	Modification time:	15. 06. 2019 19:37

#	Program:	/corina/corina34_cracker 3.40 0067  02.08.2006

@<TRIPOS>MOLECULE
ASD01840034
  34   36    0    0    0
SMALL
NO_CHARGES


@<TRIPOS>ATOM
   1 C1             0.0209     2.1675    -1.4253 C.ar    
   2 C2             0.0184     1.0612    -2.2440 C.ar    
   3 C3             1.1473     0.2574    -2.3075 C.ar    
   4 N4             2.2173     0.5340    -1.5998 N.ar    
   5 C5             2.2804     1.5931    -0.7876 C.ar    
   6 C6             1.1819     2.4517    -0.6698 C.ar    
   7 S7             3.5952     2.1480     0.2418 S.3     
   8 C8             2.6687     3.5187     0.8192 C.2     
   9 C9             1.4320     3.5437     0.2552 C.2     
  10 C10           -1.1885     3.0626    -1.3404 C.3     
  11 C11            1.1447    -0.9540    -3.2039 C.3     
  12 N12            0.4934     4.5238     0.5375 N.pl3   
  13 C13            3.1447     4.4730     1.7498 C.2     
  14 C14            4.4558     4.2786     2.4021 C.ar    
  15 O15            2.4730     5.4551     2.0130 O.2     
  16 C16            5.6369     4.4992     1.6849 C.ar    
  17 C17            6.8593     4.3158     2.3017 C.ar    
  18 C18            6.9157     3.9140     3.6265 C.ar    
  19 C19            5.7473     3.6937     4.3408 C.ar    
  20 C20            4.5217     3.8792     3.7388 C.ar    
  21 F21            8.1137     3.7356     4.2248 F       
  22 F22            5.5819     4.8902     0.3929 F       
  23 H23           -0.8551     0.8206    -2.8317 H       
  24 H24           -1.8160     2.7474    -0.5067 H       
  25 H25           -0.8680     4.0927    -1.1847 H       
  26 H26           -1.7563     2.9951    -2.2684 H       
  27 H27            1.5073    -0.6748    -4.1932 H       
  28 H28            1.7950    -1.7200    -2.7814 H       
  29 H29            0.1299    -1.3435    -3.2855 H       
  30 H30           -0.4511     4.3411     0.4129 H       
  31 H31            0.7810     5.3924     0.8595 H       
  32 H32            7.7723     4.4855     1.7503 H       
  33 H33            5.7983     3.3799     5.3730 H       
  34 H34            3.6134     3.7117     4.2986 H       
@<TRIPOS>BOND
   1    1    2 ar
   2    1    6 ar
   3    1   10 1
   4    2    3 ar
   5    2   23 1
   6    3    4 ar
   7    3   11 1
   8    4    5 ar
   9    5    7 1
  10    5    6 ar
  11    6    9 1
  12    7    8 1
  13    8    9 2
  14    8   13 1
  15    9   12 1
  16   10   24 1
  17   10   25 1
  18   10   26 1
  19   11   27 1
  20   11   28 1
  21   11   29 1
  22   12   30 1
  23   12   31 1
  24   13   14 1
  25   13   15 2
  26   14   16 ar
  27   14   20 ar
  28   16   17 ar
  29   16   22 1
  30   17   18 ar
  31   17   32 1
  32   18   19 ar
  33   18   21 1
  34   19   20 ar
  35   19   33 1
  36   20   34 1

#	End of record

