#	Name: ASD01915025
#	Creating user name:	WinNT
#	Creation time:	15. 06. 2019 20:04

#	Modifying user name:	WinNT
#	Modification time:	15. 06. 2019 20:04

#	Program:	/corina/corina34_cracker 3.40 0067  02.08.2006

@<TRIPOS>MOLECULE
ASD01915025
  43   46    0    0    0
SMALL
NO_CHARGES


@<TRIPOS>ATOM
   1 C1            -0.0167     1.3796     0.0096 C.ar    
   2 C2             0.0021    -0.0041     0.0020 C.ar    
   3 C3             1.2329    -0.6499    -0.0132 C.ar    
   4 C4             2.3913     0.1046    -0.0202 C.ar    
   5 N5             2.3390     1.4234    -0.0122 N.ar    
   6 C6             1.1871     2.0723     0.0019 C.ar    
   7 O7             1.1810     3.4295     0.0087 O.3     
   8 C8             2.4513     4.0841     0.0002 C.3     
   9 C9             2.2471     5.5771     0.0096 C.2     
  10 C10            1.0126     6.2402     0.0301 C.2     
  11 N11            3.1943     6.4860     0.0058 N.2     
  12 C12            1.3244     7.5700     0.0298 C.2     
  13 C13            0.4784     8.7730     0.0506 C.2     
  14 N14            2.6989     7.6612     0.0256 N.pl3   
  15 C15            3.3736     8.9644     0.0593 C.3     
  16 C16            2.4927    10.0058    -0.6294 C.3     
  17 N17            1.1054     9.9531    -0.1745 N.am    
  18 O18           -0.7187     8.7119     0.2582 O.2     
  19 C19            3.6129     9.3783     1.5127 C.3     
  20 F20            1.2963    -1.9993    -0.0206 F       
  21 C21            0.4091    11.1498     0.0385 C.ar    
  22 C22            0.4408    11.7620     1.2861 C.ar    
  23 C23           -0.2477    12.9440     1.4922 C.ar    
  24 C24           -0.9672    13.5162     0.4593 C.ar    
  25 C25           -1.0016    12.9102    -0.7830 C.ar    
  26 C26           -0.3107    11.7313    -0.9989 C.ar    
  27 F27           -0.3403    11.1428    -2.2146 F       
  28 F28            1.1428    11.2032     2.2961 F       
  29 H29           -0.9552     1.9139     0.0170 H       
  30 H30           -0.9183    -0.5691     0.0081 H       
  31 H31            3.3507    -0.3911    -0.0320 H       
  32 H32            3.0179     3.7893     0.8834 H       
  33 H33            3.0012     3.7982    -0.8965 H       
  34 H34            0.0283     5.7960     0.0428 H       
  35 H35            4.3284     8.8935    -0.4616 H       
  36 H36            2.8934    10.9983    -0.4232 H       
  37 H37            2.5192     9.8337    -1.7054 H       
  38 H38            4.2380     8.6331     2.0045 H       
  39 H39            4.1139    10.3461     1.5371 H       
  40 H40            2.6572     9.4507     2.0319 H       
  41 H41           -0.2236    13.4202     2.4612 H       
  42 H42           -1.5040    14.4389     0.6235 H       
  43 H43           -1.5650    13.3600    -1.5871 H       
@<TRIPOS>BOND
   1    1    2 ar
   2    1    6 ar
   3    1   29 1
   4    2    3 ar
   5    2   30 1
   6    3    4 ar
   7    3   20 1
   8    4    5 ar
   9    4   31 1
  10    5    6 ar
  11    6    7 1
  12    7    8 1
  13    8    9 1
  14    8   32 1
  15    8   33 1
  16    9   11 2
  17    9   10 1
  18   10   12 2
  19   10   34 1
  20   11   14 1
  21   12   14 1
  22   12   13 1
  23   13   17 am
  24   13   18 2
  25   14   15 1
  26   15   16 1
  27   15   19 1
  28   15   35 1
  29   16   17 1
  30   16   36 1
  31   16   37 1
  32   17   21 1
  33   19   38 1
  34   19   39 1
  35   19   40 1
  36   21   22 ar
  37   21   26 ar
  38   22   23 ar
  39   22   28 1
  40   23   24 ar
  41   23   41 1
  42   24   25 ar
  43   24   42 1
  44   25   26 ar
  45   25   43 1
  46   26   27 1

#	End of record

