#	Name: ASD03091353
#	Creating user name:	WinNT
#	Creation time:	15. 06. 2019 20:30

#	Modifying user name:	WinNT
#	Modification time:	15. 06. 2019 20:30

#	Program:	/corina/corina34_cracker 3.40 0067  02.08.2006

@<TRIPOS>MOLECULE
ASD03091353
  65   66    0    0    0
SMALL
NO_CHARGES


@<TRIPOS>ATOM
   1 C1            -0.0166     1.3764     0.0096 C.ar    
   2 C2             0.0021    -0.0041     0.0020 C.ar    
   3 C3             1.2110    -0.6895    -0.0127 C.ar    
   4 C4             2.4049     0.0071    -0.0199 C.ar    
   5 C5             2.3950     1.4040    -0.0128 C.ar    
   6 C6             1.1727     2.0889     0.0021 C.ar    
   7 O7             1.1531     3.4463     0.0087 O.3     
   8 O8             1.2193    -2.0493    -0.0197 O.3     
   9 C9             3.6664     2.1552    -0.0199 C.2     
  10 C10            4.8997     1.4595    -0.0339 C.2     
  11 O11            3.6543     3.3734    -0.0136 O.2     
  12 C12            6.0658     2.1485    -0.0405 C.2     
  13 C13            7.3423     1.4284    -0.0550 C.ar    
  14 C14            8.5553     2.1407    -0.0618 C.ar    
  15 C15            9.7537     1.4500    -0.0756 C.ar    
  16 C16            9.7529     0.0609    -0.0827 C.ar    
  17 C17            8.5494    -0.6416    -0.0764 C.ar    
  18 C18            7.3601     0.0270    -0.0565 C.ar    
  19 O19           10.9278    -0.6142    -0.0962 O.3     
  20 O20           11.3821    -0.8753     1.0497 O.3     
  21 O21            8.5499     3.4974    -0.0553 O.3     
  22 C22           12.5410    -1.5412     1.1064 C.2     
  23 C23           13.1458    -1.8889     2.4422 C.3     
  24 O24           13.1049    -1.8650     0.0829 O.2     
  25 N25           14.4034    -2.6114     2.2358 N.am    
  26 C26           13.4184    -0.6049     3.2283 C.3     
  27 C27           14.2901     0.3315     2.3891 C.3     
  28 C28           12.0923     0.0863     3.5518 C.3     
  29 C29           14.8653    -3.4458     3.1880 C.2     
  30 C30           16.1589    -4.1891     2.9757 C.3     
  31 O31           14.2398    -3.5986     4.2159 O.2     
  32 N32           16.6876    -4.6322     4.2726 N.3     
  33 C33           15.9070    -5.4070     2.0846 C.3     
  34 C34           15.3564    -4.9454     0.7338 C.3     
  35 C35           17.2204    -6.1616     1.8690 C.3     
  36 H36           -0.9598     1.9024     0.0169 H       
  37 H37           -0.9274    -0.5540     0.0079 H       
  38 H38            3.3433    -0.5274    -0.0306 H       
  39 H39            1.1390     3.8437    -0.8728 H       
  40 H40            1.2135    -2.4382    -0.9050 H       
  41 H41            4.9104     0.3796    -0.0395 H       
  42 H42            6.0550     3.2284    -0.0349 H       
  43 H43           10.6889     1.9900    -0.0813 H       
  44 H44            8.5582    -1.7215    -0.0823 H       
  45 H45            6.4314    -0.5243    -0.0514 H       
  46 H46            8.5557     3.8866     0.8299 H       
  47 H47           12.4532    -2.5175     3.0020 H       
  48 H48           14.9036    -2.4892     1.4137 H       
  49 H49           13.9363    -0.8496     4.1556 H       
  50 H50           13.7722     0.5763     1.4618 H       
  51 H51           14.4844     1.2463     2.9491 H       
  52 H52           15.2348    -0.1609     2.1586 H       
  53 H53           11.4713    -0.5807     4.1497 H       
  54 H54           12.2865     1.0011     4.1119 H       
  55 H55           11.5744     0.3311     2.6245 H       
  56 H56           16.8818    -3.5302     2.4946 H       
  57 H57           16.0353    -5.2448     4.7388 H       
  58 H58           17.5868    -5.0770     4.1637 H       
  59 H59           15.1842    -6.0659     2.5656 H       
  60 H60           15.1769    -5.8131     0.0989 H       
  61 H61           14.4207    -4.4078     0.8874 H       
  62 H62           16.0792    -4.2865     0.2527 H       
  63 H63           17.6127    -6.4904     2.8313 H       
  64 H64           17.0410    -7.0292     1.2341 H       
  65 H65           17.9433    -5.5027     1.3879 H       
@<TRIPOS>BOND
   1    1    2 ar
   2    1    6 ar
   3    1   36 1
   4    2    3 ar
   5    2   37 1
   6    3    4 ar
   7    3    8 1
   8    4    5 ar
   9    4   38 1
  10    5    6 ar
  11    5    9 1
  12    6    7 1
  13    7   39 1
  14    8   40 1
  15    9   10 1
  16    9   11 2
  17   10   12 2
  18   10   41 1
  19   12   13 1
  20   12   42 1
  21   13   14 ar
  22   13   18 ar
  23   14   15 ar
  24   14   21 1
  25   15   16 ar
  26   15   43 1
  27   16   17 ar
  28   16   19 1
  29   17   18 ar
  30   17   44 1
  31   18   45 1
  32   19   20 1
  33   20   22 1
  34   21   46 1
  35   22   23 1
  36   22   24 2
  37   23   25 1
  38   23   26 1
  39   23   47 1
  40   25   29 am
  41   25   48 1
  42   26   27 1
  43   26   28 1
  44   26   49 1
  45   27   50 1
  46   27   51 1
  47   27   52 1
  48   28   53 1
  49   28   54 1
  50   28   55 1
  51   29   30 1
  52   29   31 2
  53   30   32 1
  54   30   33 1
  55   30   56 1
  56   32   57 1
  57   32   58 1
  58   33   34 1
  59   33   35 1
  60   33   59 1
  61   34   60 1
  62   34   61 1
  63   34   62 1
  64   35   63 1
  65   35   64 1
  66   35   65 1

#	End of record

