#	Name: ASD01884577
#	Creating user name:	WinNT
#	Creation time:	15. 06. 2019 19:48

#	Modifying user name:	WinNT
#	Modification time:	15. 06. 2019 19:48

#	Program:	/corina/corina34_cracker 3.40 0067  02.08.2006

@<TRIPOS>MOLECULE
ASD01884577
  42   44    0    0    0
SMALL
NO_CHARGES


@<TRIPOS>ATOM
   1 C1            -0.0164     1.3598     0.0095 C.2     
   2 C2             0.0021    -0.0041     0.0020 C.2     
   3 C3             1.2342    -0.6727    -0.0133 C.2     
   4 C4             2.3874     0.0358    -0.0205 C.2     
   5 N5             2.3670     1.3933    -0.0126 N.am    
   6 C6             1.1996     2.0643     0.0017 C.2     
   7 O7             1.1975     3.2849     0.0083 O.2     
   8 C8             3.6294     2.1366    -0.0197 C.3     
   9 C9             1.2747    -2.1791    -0.0213 C.3     
  10 C10            1.1781    -2.6917     1.3925 C.ar    
  11 C11           -0.0601    -2.9580     1.9471 C.ar    
  12 C12           -0.1513    -3.4280     3.2429 C.ar    
  13 C13            1.0009    -3.6327     3.9880 C.ar    
  14 C14            2.2422    -3.3647     3.4293 C.ar    
  15 C15            2.3283    -2.9003     2.1311 C.ar    
  16 O16            0.9139    -4.0945     5.2631 O.3     
  17 C17            2.1413    -4.2817     5.9706 C.3     
  18 C18            4.0495     2.3996    -1.4429 C.ar    
  19 C19            3.4737     3.4386    -2.1538 C.ar    
  20 C20            3.8603     3.6796    -3.4614 C.ar    
  21 C21            4.8211     2.8820    -4.0556 C.ar    
  22 C22            5.3956     1.8438    -3.3435 C.ar    
  23 C23            5.0138     1.6069    -2.0365 C.ar    
  24 Cl24           5.3062     3.1828    -5.6951 Cl      
  25 F25            2.5349     4.2168    -1.5723 F       
  26 H26           -0.9557     1.8927     0.0169 H       
  27 H27           -0.9222    -0.5627     0.0082 H       
  28 H28            3.3339    -0.4842    -0.0324 H       
  29 H29            3.4957     3.0849     0.5008 H       
  30 H30            4.3986     1.5511     0.4839 H       
  31 H31            0.4372    -2.5620    -0.6046 H       
  32 H32            2.2112    -2.5151    -0.4665 H       
  33 H33           -0.9569    -2.7982     1.3668 H       
  34 H34           -1.1188    -3.6355     3.6757 H       
  35 H35            3.1406    -3.5233     4.0072 H       
  36 H36            3.2943    -2.6915     1.6957 H       
  37 H37            1.9297    -4.6527     6.9734 H       
  38 H38            2.7605    -5.0043     5.4390 H       
  39 H39            2.6699    -3.3309     6.0389 H       
  40 H40            3.4115     4.4897    -4.0170 H       
  41 H41            6.1460     1.2211    -3.8079 H       
  42 H42            5.4628     0.7964    -1.4816 H       
@<TRIPOS>BOND
   1    1    2 2
   2    1    6 1
   3    1   26 1
   4    2    3 1
   5    2   27 1
   6    3    4 2
   7    3    9 1
   8    4    5 1
   9    4   28 1
  10    5    6 am
  11    5    8 1
  12    6    7 2
  13    8   18 1
  14    8   29 1
  15    8   30 1
  16    9   10 1
  17    9   31 1
  18    9   32 1
  19   10   11 ar
  20   10   15 ar
  21   11   12 ar
  22   11   33 1
  23   12   13 ar
  24   12   34 1
  25   13   14 ar
  26   13   16 1
  27   14   15 ar
  28   14   35 1
  29   15   36 1
  30   16   17 1
  31   17   37 1
  32   17   38 1
  33   17   39 1
  34   18   19 ar
  35   18   23 ar
  36   19   20 ar
  37   19   25 1
  38   20   21 ar
  39   20   40 1
  40   21   22 ar
  41   21   24 1
  42   22   23 ar
  43   22   41 1
  44   23   42 1

#	End of record

