#	Name: ASD09740082
#	Creating user name:	WinNT
#	Creation time:	15. 06. 2019 21:22

#	Modifying user name:	WinNT
#	Modification time:	15. 06. 2019 21:22

#	Program:	/corina/corina34_cracker 3.40 0067  02.08.2006

@<TRIPOS>MOLECULE
ASD09740082
  38   40    0    0    0
SMALL
NO_CHARGES


@<TRIPOS>ATOM
   1 O1            -0.0144     1.2085     0.0087 O.3     
   2 N2             0.0021    -0.0041     0.0020 N.2     
   3 C3             1.2411     1.6827    -0.0008 C.2     
   4 N4             2.0453     0.6365    -0.0141 N.2     
   5 C5             1.2345    -0.4420    -0.0121 C.2     
   6 C6             1.6625    -1.8640    -0.0234 C.ar    
   7 C7             1.6456     3.1046     0.0026 C.ar    
   8 C8             0.7215    -2.8965    -0.0200 C.ar    
   9 C9             3.0169    -2.2055    -0.0436 C.ar    
  10 C10            3.3712    -3.5396    -0.0540 C.ar    
  11 N11            2.4511    -4.4844    -0.0451 N.ar    
  12 C12            1.1623    -4.2046    -0.0313 C.ar    
  13 C13            2.9980     3.4485    -0.0089 C.ar    
  14 C14            3.3688     4.7776    -0.0062 C.ar    
  15 C15            2.4033     5.7681     0.0083 C.ar    
  16 C16            1.0606     5.4339     0.0203 C.ar    
  17 C17            0.6764     4.1091     0.0114 C.ar    
  18 C18            0.0156     6.5197     0.0371 C.3     
  19 C19           -0.3528     6.8952    -1.3996 C.3     
  20 C20           -1.0211     5.7009    -2.0835 C.3     
  21 C21           -1.3195     8.0810    -1.3848 C.3     
  22 H22           -0.3354    -2.6745    -0.0083 H       
  23 H23            3.7756    -1.4369    -0.0513 H       
  24 H24            4.4158    -3.8134    -0.0700 H       
  25 H25            0.4423    -5.0096    -0.0241 H       
  26 H26            3.7527     2.6761    -0.0196 H       
  27 H27            4.4151     5.0450    -0.0151 H       
  28 H28            2.6988     6.8069     0.0108 H       
  29 H29           -0.3719     3.8496     0.0208 H       
  30 H30           -0.8722     6.1614     0.5581 H       
  31 H31            0.4102     7.3957     0.5518 H       
  32 H32            0.5495     7.1689    -1.9464 H       
  33 H33           -1.9235     5.4272    -1.5367 H       
  34 H34           -1.2836     5.9684    -3.1070 H       
  35 H35           -0.3324     4.8561    -2.0940 H       
  36 H36           -0.8434     8.9319    -0.8976 H       
  37 H37           -1.5820     8.3486    -2.4083 H       
  38 H38           -2.2219     7.8074    -0.8380 H       
@<TRIPOS>BOND
   1    1    2 1
   2    1    3 1
   3    2    5 2
   4    3    4 2
   5    3    7 1
   6    4    5 1
   7    5    6 1
   8    6    8 ar
   9    6    9 ar
  10    7   13 ar
  11    7   17 ar
  12    8   12 ar
  13    8   22 1
  14    9   10 ar
  15    9   23 1
  16   10   11 ar
  17   10   24 1
  18   11   12 ar
  19   12   25 1
  20   13   14 ar
  21   13   26 1
  22   14   15 ar
  23   14   27 1
  24   15   16 ar
  25   15   28 1
  26   16   17 ar
  27   16   18 1
  28   17   29 1
  29   18   19 1
  30   18   30 1
  31   18   31 1
  32   19   20 1
  33   19   21 1
  34   19   32 1
  35   20   33 1
  36   20   34 1
  37   20   35 1
  38   21   36 1
  39   21   37 1
  40   21   38 1

#	End of record

