#	Name: ASD01420218
#	Creating user name:	WinNT
#	Creation time:	15. 06. 2019 19:20

#	Modifying user name:	WinNT
#	Modification time:	15. 06. 2019 19:20

#	Program:	/corina/corina34_cracker 3.40 0067  02.08.2006

@<TRIPOS>MOLECULE
ASD01420218
  45   48    0    0    0
SMALL
NO_CHARGES


@<TRIPOS>ATOM
   1 C1            -0.0169     1.3941     0.0097 C.ar    
   2 C2             0.0021    -0.0041     0.0020 C.ar    
   3 C3             1.2358    -0.6787    -0.0134 C.ar    
   4 C4             2.4198     0.0442    -0.0208 C.ar    
   5 C5             2.3826     1.4229    -0.0130 C.ar    
   6 C6             1.1683     2.0938     0.0021 C.ar    
   7 N7            -0.9708    -0.9481     0.0062 N.2     
   8 C8            -0.4271    -2.1411    -0.0054 C.2     
   9 N9             0.9373    -2.0282    -0.0178 N.pl3   
  10 C10           -1.1744    -3.4157    -0.0051 C.2     
  11 C11           -2.5816    -3.5543     0.0071 C.2     
  12 C12           -2.8664    -4.8795     0.0029 C.2     
  13 N13           -1.6893    -5.5585    -0.0114 N.pl3   
  14 N14           -0.6464    -4.6239    -0.0219 N.2     
  15 N15           -3.5166    -2.5066     0.0211 N.am    
  16 C16           -4.8361    -2.7810     0.0318 C.2     
  17 O17           -5.2170    -3.9360     0.0294 O.2     
  18 C18           -5.8183    -1.6804     0.0465 C.ar    
  19 C19           -6.2756    -1.1617     1.2627 C.ar    
  20 C20           -7.1960    -0.1306     1.2673 C.ar    
  21 C21           -7.6651     0.3882     0.0741 C.ar    
  22 C22           -7.2184    -0.1185    -1.1328 C.ar    
  23 C23           -6.2935    -1.1454    -1.1558 C.ar    
  24 F24           -5.8584    -1.6390    -2.3357 F       
  25 F25           -5.8193    -1.6677     2.4294 F       
  26 C26            1.1468     3.6006     0.0099 C.3     
  27 O27            1.1266     4.0914    -1.3564 O.3     
  28 C28            1.1059     5.4229    -1.5254 C.2     
  29 C29            1.0842     6.0058    -2.9149 C.3     
  30 O30            1.1048     6.1540    -0.5635 O.2     
  31 H31           -0.9584     1.9232     0.0171 H       
  32 H32            3.3687    -0.4715    -0.0323 H       
  33 H33            3.3052     1.9842    -0.0188 H       
  34 H34            1.5752    -2.7588    -0.0281 H       
  35 H35           -3.8534    -5.3179     0.0097 H       
  36 H36           -1.5889    -6.5233    -0.0168 H       
  37 H37           -3.2128    -1.5854     0.0231 H       
  38 H38           -7.5501     0.2710     2.2052 H       
  39 H39           -8.3847     1.1934     0.0848 H       
  40 H40           -7.5902     0.2921    -2.0599 H       
  41 H41            0.2568     3.9486     0.5342 H       
  42 H42            2.0365     3.9740     0.5170 H       
  43 H43            0.0514     6.1317    -3.2400 H       
  44 H44            1.5843     6.9743    -2.9105 H       
  45 H45            1.6011     5.3331    -3.5993 H       
@<TRIPOS>BOND
   1    1    2 ar
   2    1    6 ar
   3    1   31 1
   4    2    3 ar
   5    2    7 1
   6    3    4 ar
   7    3    9 1
   8    4    5 ar
   9    4   32 1
  10    5    6 ar
  11    5   33 1
  12    6   26 1
  13    7    8 2
  14    8    9 1
  15    8   10 1
  16    9   34 1
  17   10   11 1
  18   10   14 2
  19   11   12 2
  20   11   15 1
  21   12   13 1
  22   12   35 1
  23   13   14 1
  24   13   36 1
  25   15   16 am
  26   15   37 1
  27   16   18 1
  28   16   17 2
  29   18   19 ar
  30   18   23 ar
  31   19   20 ar
  32   19   25 1
  33   20   21 ar
  34   20   38 1
  35   21   22 ar
  36   21   39 1
  37   22   23 ar
  38   22   40 1
  39   23   24 1
  40   26   27 1
  41   26   41 1
  42   26   42 1
  43   27   28 1
  44   28   29 1
  45   28   30 2
  46   29   43 1
  47   29   44 1
  48   29   45 1

#	End of record

