#	Name: ASD08178093
#	Creating user name:	WinNT
#	Creation time:	15. 06. 2019 21:18

#	Modifying user name:	WinNT
#	Modification time:	15. 06. 2019 21:18

#	Program:	/corina/corina34_cracker 3.40 0067  02.08.2006

@<TRIPOS>MOLECULE
ASD08178093
  66   71    0    0    0
SMALL
NO_CHARGES


@<TRIPOS>ATOM
   1 N1            -0.0150     1.2583     0.0090 N.2     
   2 N2             0.0021    -0.0041     0.0020 N.2     
   3 C3             1.1271     1.8769     0.0014 C.2     
   4 S4             2.3826     0.7116    -0.0169 S.3     
   5 C5             1.1681    -0.5677    -0.0121 C.2     
   6 N6             1.3017     3.2566     0.0071 N.am    
   7 C7             0.2284     4.0717     0.0222 C.2     
   8 O8            -0.8897     3.6019     0.0309 O.2     
   9 C9             1.4387    -2.0502    -0.0217 C.3     
  10 C10            1.5173    -2.5450    -1.4674 C.3     
  11 C11            1.8707    -4.5448    -2.9228 C.3     
  12 C12            2.1412    -6.0273    -2.9323 C.2     
  13 N13            1.2495    -6.9667    -2.9293 N.2     
  14 S14            3.7292    -6.7949    -2.9574 S.3     
  15 C15            2.9664    -8.3288    -2.9528 C.2     
  16 N16            1.6794    -8.1537    -2.9388 N.2     
  17 N17            3.6171    -9.5578    -2.9674 N.am    
  18 C18            2.9010   -10.6996    -2.9618 C.2     
  19 O19            1.6891   -10.6553    -2.9442 O.2     
  20 C20            3.6061   -12.0314    -2.9776 C.3     
  21 C21            0.4176     5.5667     0.0285 C.3     
  22 C22            1.7920    -4.0501    -1.4771 C.3     
  23 C23            0.0279     6.3229     1.3002 C.3     
  24 C24           -0.8400     6.4379     0.0454 C.3     
  25 C25            2.7374   -13.2908    -2.9704 C.3     
  26 C26            3.4813   -12.8819    -4.2433 C.3     
  27 C27            3.2549   -14.4887    -2.2164 C.ar    
  28 C28           -0.7957     7.7386    -0.7144 C.ar    
  29 C29           -1.6858     7.9664    -1.7472 C.ar    
  30 C30           -1.6452     9.1595    -2.4442 C.ar    
  31 C31           -0.7148    10.1250    -2.1080 C.ar    
  32 C32            0.1747     9.8976    -1.0746 C.ar    
  33 C33            0.1312     8.7062    -0.3748 C.ar    
  34 C34            2.5251   -15.0120    -1.1655 C.ar    
  35 C35            2.9998   -16.1108    -0.4739 C.ar    
  36 C36            4.2040   -16.6865    -0.8336 C.ar    
  37 C37            4.9333   -16.1637    -1.8851 C.ar    
  38 C38            4.4565   -15.0676    -2.5794 C.ar    
  39 H39            2.1959     3.6323     0.0002 H       
  40 H40            2.3840    -2.2503     0.4827 H       
  41 H41            0.6331    -2.5700     0.4969 H       
  42 H42            0.5720    -2.3449    -1.9718 H       
  43 H43            2.3230    -2.0252    -1.9860 H       
  44 H44            2.6763    -4.0251    -3.4413 H       
  45 H45            0.9253    -4.3448    -3.4272 H       
  46 H46            4.5863    -9.5933    -2.9815 H       
  47 H47            4.5517   -12.0691    -2.4367 H       
  48 H48            1.2773     5.9341    -0.5320 H       
  49 H49            2.7374    -4.2501    -0.9727 H       
  50 H50            0.9864    -4.5698    -0.9585 H       
  51 H51           -0.3654     5.7389     2.1323 H       
  52 H52            0.6309     7.1879     1.5761 H       
  53 H53           -1.8042     5.9297     0.0521 H       
  54 H54            1.6559   -13.1561    -2.9542 H       
  55 H55            2.8892   -12.4782    -5.0645 H       
  56 H56            4.3450   -13.4793    -4.5354 H       
  57 H57           -2.4127     7.2120    -2.0099 H       
  58 H58           -2.3401     9.3371    -3.2516 H       
  59 H59           -0.6826    11.0568    -2.6530 H       
  60 H60            0.9018    10.6518    -0.8121 H       
  61 H61            0.8261     8.5286     0.4327 H       
  62 H62            1.5843   -14.5622    -0.8845 H       
  63 H63            2.4300   -16.5192     0.3476 H       
  64 H64            4.5751   -17.5445    -0.2928 H       
  65 H65            5.8742   -16.6133    -2.1659 H       
  66 H66            5.0263   -14.6592    -3.4010 H       
@<TRIPOS>BOND
   1    1    2 1
   2    1    3 2
   3    2    5 2
   4    3    4 1
   5    3    6 1
   6    4    5 1
   7    5    9 1
   8    6    7 am
   9    6   39 1
  10    7    8 2
  11    7   21 1
  12    9   10 1
  13    9   40 1
  14    9   41 1
  15   10   22 1
  16   10   42 1
  17   10   43 1
  18   11   12 1
  19   11   22 1
  20   11   44 1
  21   11   45 1
  22   12   13 2
  23   12   14 1
  24   13   16 1
  25   14   15 1
  26   15   16 2
  27   15   17 1
  28   17   18 am
  29   17   46 1
  30   18   19 2
  31   18   20 1
  32   20   25 1
  33   20   26 1
  34   20   47 1
  35   21   23 1
  36   21   24 1
  37   21   48 1
  38   22   49 1
  39   22   50 1
  40   23   24 1
  41   23   51 1
  42   23   52 1
  43   24   28 1
  44   24   53 1
  45   25   26 1
  46   25   27 1
  47   25   54 1
  48   26   55 1
  49   26   56 1
  50   27   34 ar
  51   27   38 ar
  52   28   29 ar
  53   28   33 ar
  54   29   30 ar
  55   29   57 1
  56   30   31 ar
  57   30   58 1
  58   31   32 ar
  59   31   59 1
  60   32   33 ar
  61   32   60 1
  62   33   61 1
  63   34   35 ar
  64   34   62 1
  65   35   36 ar
  66   35   63 1
  67   36   37 ar
  68   36   64 1
  69   37   38 ar
  70   37   65 1
  71   38   66 1

#	End of record

