#	Name: ASD00431154
#	Creating user name:	WinNT
#	Creation time:	15. 06. 2019 18:35

#	Modifying user name:	WinNT
#	Modification time:	15. 06. 2019 18:35

#	Program:	/corina/corina34_cracker 3.40 0067  02.08.2006

@<TRIPOS>MOLECULE
ASD00431154
  52   55    0    0    0
SMALL
NO_CHARGES


@<TRIPOS>ATOM
   1 C1            -0.3840     2.0577    -1.0516 C.2     
   2 C2            -0.5856     0.6215    -1.4612 C.3     
   3 O3             0.7224     2.4529    -0.7506 O.2     
   4 N4            -1.4322     2.9044    -1.0251 N.am    
   5 C5            -1.2362     4.3006    -0.6269 C.3     
   6 C6            -0.7932     5.1198    -1.8408 C.3     
   7 O7            -3.7598     4.6315    -0.5771 O.3     
   8 N8            -4.6093     5.2108     0.0591 N.2     
   9 C9            -4.0823     5.8964     1.0469 C.2     
  10 C10           -2.6759     5.6772     0.9724 C.2     
  11 C11           -2.5304     4.8565    -0.0910 C.2     
  12 S12           -4.0674     7.6388     3.3516 S.3     
  13 C13           -5.6091     8.1900     3.8432 C.2     
  14 N14           -6.5288     7.7078     3.0653 N.2     
  15 C15           -6.1351     6.9217     2.0875 C.2     
  16 C16           -4.8008     6.7268     2.0346 C.2     
  17 O17           -5.8378     9.0119     4.8948 O.3     
  18 C18           -7.1291     9.2680     5.2359 C.ar    
  19 C19           -7.4163    10.2311     6.1940 C.ar    
  20 C20           -8.7287    10.4912     6.5398 C.ar    
  21 C21           -9.7585     9.7901     5.9295 C.ar    
  22 C22           -9.4712     8.8279     4.9730 C.ar    
  23 C23           -8.1595     8.5715     4.6227 C.ar    
  24 O24          -11.0499    10.0459     6.2697 O.3     
  25 C25          -12.0636     9.3705     5.5226 C.3     
  26 C26          -13.3592     9.2861     6.3485 C.3     
  27 C27          -14.4418    10.0393     5.5482 C.3     
  28 C28          -13.9340     9.9933     4.0857 C.3     
  29 C29          -12.4042    10.1720     4.2492 C.3     
  30 Cl30          -6.1271    11.1078     6.9577 Cl      
  31 H31           -0.8098     0.0204    -0.5800 H       
  32 H32           -1.4152     0.5576    -2.1653 H       
  33 H33            0.3223     0.2478    -1.9346 H       
  34 H34           -2.3165     2.5894    -1.2697 H       
  35 H35           -0.4700     4.3537     0.1466 H       
  36 H36           -0.6473     6.1585    -1.5445 H       
  37 H37            0.1429     4.7176    -2.2284 H       
  38 H38           -1.5594     5.0667    -2.6142 H       
  39 H39           -1.9055     6.0750     1.6163 H       
  40 H40           -6.8213     6.4701     1.3864 H       
  41 H41           -8.9526    11.2399     7.2852 H       
  42 H42          -10.2732     8.2818     4.4987 H       
  43 H43           -7.9364     7.8255     3.8743 H       
  44 H44          -11.7254     8.3694     5.2552 H       
  45 H45          -13.6502     8.2441     6.4812 H       
  46 H46          -13.2147     9.7604     7.3192 H       
  47 H47          -15.4025     9.5317     5.6346 H       
  48 H48          -14.5220    11.0706     5.8919 H       
  49 H49          -14.1637     9.0315     3.6271 H       
  50 H50          -14.3584    10.8112     3.5035 H       
  51 H51          -12.1552    11.2247     4.3832 H       
  52 H52          -11.8778     9.7612     3.3877 H       
@<TRIPOS>BOND
   1    1    2 1
   2    1    3 2
   3    1    4 am
   4    2   31 1
   5    2   32 1
   6    2   33 1
   7    4    5 1
   8    4   34 1
   9    5    6 1
  10    5   11 1
  11    5   35 1
  12    6   36 1
  13    6   37 1
  14    6   38 1
  15    7    8 1
  16    7   11 1
  17    8    9 2
  18    9   10 1
  19    9   16 1
  20   10   11 2
  21   10   39 1
  22   12   13 1
  23   12   16 1
  24   13   14 2
  25   13   17 1
  26   14   15 1
  27   15   16 2
  28   15   40 1
  29   17   18 1
  30   18   19 ar
  31   18   23 ar
  32   19   20 ar
  33   19   30 1
  34   20   21 ar
  35   20   41 1
  36   21   22 ar
  37   21   24 1
  38   22   23 ar
  39   22   42 1
  40   23   43 1
  41   24   25 1
  42   25   26 1
  43   25   29 1
  44   25   44 1
  45   26   27 1
  46   26   45 1
  47   26   46 1
  48   27   28 1
  49   27   47 1
  50   27   48 1
  51   28   29 1
  52   28   49 1
  53   28   50 1
  54   29   51 1
  55   29   52 1

#	End of record

