#	Name: ASD01410877
#	Creating user name:	WinNT
#	Creation time:	15. 06. 2019 19:18

#	Modifying user name:	WinNT
#	Modification time:	15. 06. 2019 19:18

#	Program:	/corina/corina34_cracker 3.40 0067  02.08.2006

@<TRIPOS>MOLECULE
ASD01410877
  67   69    0    0    0
SMALL
NO_CHARGES


@<TRIPOS>ATOM
   1 C1            -0.8545     2.4265     0.7234 C.ar    
   2 C2            -1.4930     0.1232     0.4729 C.ar    
   3 C3            -2.8092     0.5065     0.2558 C.ar    
   4 C4            -3.1527     1.8667     0.2848 C.ar    
   5 C5            -2.1624     2.8247     0.5146 C.ar    
   6 O6             0.1090     3.3580     0.9528 O.3     
   7 C7             0.9499     3.6687    -0.0655 C.ar    
   8 N8            -3.7886    -0.4574     0.0212 N.am    
   9 C9            -4.3955    -1.0679     1.0582 C.2     
  10 C10           -4.0827    -0.6438     2.4701 C.3     
  11 O11           -5.1934    -1.9584     0.8552 O.2     
  12 C12           -5.3128    -0.8635     3.3530 C.3     
  13 C13           -2.5979    -1.0451     4.4391 C.3     
  14 C14           -3.8281    -1.2647     5.3220 C.3     
  15 C15           -4.9952    -0.4330     4.7864 C.3     
  16 C16           -3.5105    -0.8342     6.7554 C.3     
  17 N17            0.8554     3.0197    -1.2145 N.ar    
  18 C18            1.8981     4.6690     0.1063 C.ar    
  19 C19            2.7497     4.9765    -0.9407 C.ar    
  20 C20            2.6218     4.2690    -2.1278 C.ar    
  21 C21            1.6526     3.2905    -2.2300 C.ar    
  22 C22           -2.9155    -1.4756     3.0057 C.3     
  23 C23           -0.5228     1.0770     0.7052 C.ar    
  24 C24           -4.1582    -0.8068    -1.3527 C.3     
  25 C25           -3.1935    -1.8677    -1.8863 C.3     
  26 O26           -3.3483    -3.0734    -1.1349 O.3     
  27 C27           -2.4882    -4.1345    -1.5548 C.3     
  28 C28           -2.1602    -5.0291    -0.3578 C.3     
  29 C29           -3.1892    -4.9626    -2.6336 C.3     
  30 C30           -4.5477     2.2836     0.0550 C.2     
  31 O31           -5.4038     1.4486    -0.1603 O.2     
  32 O32           -4.8736     3.5909     0.0836 O.3     
  33 C33            1.9981     5.4099     1.4148 C.3     
  34 F34            3.0220     6.3598     1.3357 F       
  35 F35            0.7845     6.0533     1.6802 F       
  36 F36            2.2805     4.5042     2.4430 F       
  37 H37           -1.2258    -0.9230     0.4512 H       
  38 H38           -2.4175     3.8740     0.5296 H       
  39 H39           -3.8116     0.4118     2.4808 H       
  40 H40           -6.1443    -0.2709     2.9714 H       
  41 H41           -5.5839    -1.9192     3.3423 H       
  42 H42           -2.3268     0.0106     4.4498 H       
  43 H43           -1.7664    -1.6376     4.8206 H       
  44 H44           -4.0992    -2.3204     5.3113 H       
  45 H45           -4.7241     0.6227     4.7971 H       
  46 H46           -5.8716    -0.5894     5.4154 H       
  47 H47           -3.2394     0.2215     6.7661 H       
  48 H48           -4.3868    -0.9907     7.3843 H       
  49 H49           -2.6790    -1.4267     7.1369 H       
  50 H50            3.4965     5.7497    -0.8363 H       
  51 H51            3.2702     4.4844    -2.9642 H       
  52 H52            1.5492     2.7368    -3.1515 H       
  53 H53           -3.1866    -2.5313     2.9950 H       
  54 H54           -2.0391    -1.3191     2.3767 H       
  55 H55            0.4998     0.7730     0.8735 H       
  56 H56           -5.1747    -1.2001    -1.3667 H       
  57 H57           -4.1040     0.0823    -1.9809 H       
  58 H58           -3.4127    -2.0631    -2.9360 H       
  59 H59           -2.1689    -1.5086    -1.7898 H       
  60 H60           -1.5664    -3.7165    -1.9594 H       
  61 H61           -3.0820    -5.4471     0.0468 H       
  62 H62           -1.5042    -5.8385    -0.6781 H       
  63 H63           -1.6608    -4.4392     0.4107 H       
  64 H64           -2.5332    -5.7720    -2.9539 H       
  65 H65           -4.1110    -5.3806    -2.2290 H       
  66 H66           -3.4229    -4.3252    -3.4864 H       
  67 H67           -5.8011     3.8156    -0.0728 H       
@<TRIPOS>BOND
   1    1   23 ar
   2    1    6 1
   3    1    5 ar
   4    2    3 ar
   5    2   23 ar
   6    2   37 1
   7    3    4 ar
   8    3    8 1
   9    4    5 ar
  10    4   30 1
  11    5   38 1
  12    6    7 1
  13    7   18 ar
  14    7   17 ar
  15    8    9 am
  16    8   24 1
  17    9   11 2
  18    9   10 1
  19   10   12 1
  20   10   22 1
  21   10   39 1
  22   12   15 1
  23   12   40 1
  24   12   41 1
  25   13   14 1
  26   13   22 1
  27   13   42 1
  28   13   43 1
  29   14   15 1
  30   14   16 1
  31   14   44 1
  32   15   45 1
  33   15   46 1
  34   16   47 1
  35   16   48 1
  36   16   49 1
  37   17   21 ar
  38   18   19 ar
  39   18   33 1
  40   19   20 ar
  41   19   50 1
  42   20   21 ar
  43   20   51 1
  44   21   52 1
  45   22   53 1
  46   22   54 1
  47   23   55 1
  48   24   25 1
  49   24   56 1
  50   24   57 1
  51   25   26 1
  52   25   58 1
  53   25   59 1
  54   26   27 1
  55   27   28 1
  56   27   29 1
  57   27   60 1
  58   28   61 1
  59   28   62 1
  60   28   63 1
  61   29   64 1
  62   29   65 1
  63   29   66 1
  64   30   31 2
  65   30   32 1
  66   32   67 1
  67   33   34 1
  68   33   35 1
  69   33   36 1

#	End of record

