#	Name: ASD01900456
#	Creating user name:	WinNT
#	Creation time:	15. 06. 2019 19:51

#	Modifying user name:	WinNT
#	Modification time:	15. 06. 2019 19:51

#	Program:	/corina/corina34_cracker 3.40 0067  02.08.2006

@<TRIPOS>MOLECULE
ASD01900456
  26   28    0    0    0
SMALL
NO_CHARGES


@<TRIPOS>ATOM
   1 C1            -0.0199     1.4049     0.0216 C.2     
   2 C2            -0.0030    -0.0020    -0.0104 C.2     
   3 C3             1.1933    -0.6491    -0.0782 C.2     
   4 C4             2.3889     0.0809    -0.1155 C.2     
   5 N5             2.3809     1.3865    -0.0861 N.2     
   6 N6             1.1747     2.0901    -0.0166 N.pl3   
   7 N7            -1.0007     2.2915     0.0905 N.2     
   8 C8            -0.4807     3.5215     0.0921 C.2     
   9 C9             0.8740     3.4193     0.0268 C.2     
  10 N10            1.7880     4.4795     0.0101 N.pl3   
  11 C11            1.3291     5.7963    -0.0836 C.ar    
  12 C12            1.9904     6.8133     0.5937 C.ar    
  13 C13            1.5346     8.1144     0.4996 C.ar    
  14 C14            0.4185     8.4044    -0.2695 C.ar    
  15 C15           -0.2416     7.3921    -0.9445 C.ar    
  16 C16            0.2145     6.0910    -0.8584 C.ar    
  17 F17           -0.0261     9.6770    -0.3601 F       
  18 Cl18           2.3599     9.3861     1.3453 Cl      
  19 H19           -0.9265    -0.5611     0.0189 H       
  20 H20            1.2208    -1.7285    -0.1031 H       
  21 H21            3.3312    -0.4441    -0.1689 H       
  22 H22           -1.0418     4.4430     0.1402 H       
  23 H23            2.7398     4.3003     0.0634 H       
  24 H24            2.8596     6.5871     1.1935 H       
  25 H25           -1.1115     7.6204    -1.5425 H       
  26 H26           -0.2982     5.3025    -1.3893 H       
@<TRIPOS>BOND
   1    1    2 1
   2    1    6 1
   3    1    7 2
   4    2    3 2
   5    2   19 1
   6    3    4 1
   7    3   20 1
   8    4    5 2
   9    4   21 1
  10    5    6 1
  11    6    9 1
  12    7    8 1
  13    8    9 2
  14    8   22 1
  15    9   10 1
  16   10   11 1
  17   10   23 1
  18   11   12 ar
  19   11   16 ar
  20   12   13 ar
  21   12   24 1
  22   13   14 ar
  23   13   18 1
  24   14   15 ar
  25   14   17 1
  26   15   16 ar
  27   15   25 1
  28   16   26 1

#	End of record

