#	Name: ASD03731869
#	Creating user name:	WinNT
#	Creation time:	15. 06. 2019 20:46

#	Modifying user name:	WinNT
#	Modification time:	15. 06. 2019 20:46

#	Program:	/corina/corina34_cracker 3.40 0067  02.08.2006

@<TRIPOS>MOLECULE
ASD03731869
  42   44    0    0    0
SMALL
NO_CHARGES


@<TRIPOS>ATOM
   1 C1             0.2714     1.4276     0.1963 C.2     
   2 C2             0.2451    -0.0381     0.0522 C.ar    
   3 C3             1.4370    -0.7715     0.1117 C.ar    
   4 C4             1.4064    -2.1445    -0.0239 C.ar    
   5 C5             0.1965    -2.7979    -0.2194 C.ar    
   6 C6            -0.9899    -2.0723    -0.2795 C.ar    
   7 C7            -0.9707    -0.7027    -0.1386 C.ar    
   8 O8             1.3284     2.0026     0.3670 O.2     
   9 O9            -0.8763     2.1316     0.1331 O.3     
  10 F10            2.6141    -0.1360     0.3010 F       
  11 O11            0.1709    -4.1481    -0.3527 O.3     
  12 C12            1.3343    -4.8285    -0.1792 C.ar    
  13 C13            1.8287    -5.0448     1.0991 C.ar    
  14 C14            3.0122    -5.7377     1.2727 C.ar    
  15 C15            3.7035    -6.2146     0.1725 C.ar    
  16 C16            3.2122    -5.9998    -1.1015 C.ar    
  17 C17            2.0268    -5.3128    -1.2797 C.ar    
  18 C18            4.9941    -6.9688     0.3639 C.3     
  19 F19            5.5030    -7.3464    -0.8834 F       
  20 F20            5.9208    -6.1491     1.0169 F       
  21 F21            4.7566    -8.1111     1.1359 F       
  22 Cl22           3.6321    -6.0092     2.8714 Cl      
  23 Cl23          -2.4977    -2.8967    -0.5253 Cl      
  24 C24           -0.7748     3.4849     0.2068 C.ar    
  25 C25           -0.3817     4.2139    -0.9062 C.ar    
  26 C26           -0.2798     5.5894    -0.8288 C.ar    
  27 C27           -0.5687     6.2396     0.3567 C.ar    
  28 C28           -0.9602     5.5154     1.4676 C.ar    
  29 C29           -1.0696     4.1403     1.3936 C.ar    
  30 C30           -0.4562     7.7402     0.4384 C.3     
  31 H31            2.3244    -2.7116     0.0217 H       
  32 H32           -1.8927    -0.1418    -0.1806 H       
  33 H33            1.2896    -4.6721     1.9575 H       
  34 H34            3.7536    -6.3726    -1.9584 H       
  35 H35            1.6416    -5.1490    -2.2753 H       
  36 H36           -0.1552     3.7065    -1.8323 H       
  37 H37            0.0262     6.1573    -1.6950 H       
  38 H38           -1.1850     6.0255     2.3925 H       
  39 H39           -1.3798     3.5754     2.2603 H       
  40 H40           -1.4114     8.1913     0.1698 H       
  41 H41           -0.1908     8.0298     1.4552 H       
  42 H42            0.3150     8.0848    -0.2505 H       
@<TRIPOS>BOND
   1    1    2 1
   2    1    8 2
   3    1    9 1
   4    2    3 ar
   5    2    7 ar
   6    3    4 ar
   7    3   10 1
   8    4    5 ar
   9    4   31 1
  10    5    6 ar
  11    5   11 1
  12    6    7 ar
  13    6   23 1
  14    7   32 1
  15    9   24 1
  16   11   12 1
  17   12   13 ar
  18   12   17 ar
  19   13   14 ar
  20   13   33 1
  21   14   15 ar
  22   14   22 1
  23   15   16 ar
  24   15   18 1
  25   16   17 ar
  26   16   34 1
  27   17   35 1
  28   18   19 1
  29   18   20 1
  30   18   21 1
  31   24   25 ar
  32   24   29 ar
  33   25   26 ar
  34   25   36 1
  35   26   27 ar
  36   26   37 1
  37   27   28 ar
  38   27   30 1
  39   28   29 ar
  40   28   38 1
  41   29   39 1
  42   30   40 1
  43   30   41 1
  44   30   42 1

#	End of record

