#	Name: ASD01912732
#	Creating user name:	WinNT
#	Creation time:	15. 06. 2019 20:00

#	Modifying user name:	WinNT
#	Modification time:	15. 06. 2019 20:00

#	Program:	/corina/corina34_cracker 3.40 0067  02.08.2006

@<TRIPOS>MOLECULE
ASD01912732
  45   48    0    0    0
SMALL
NO_CHARGES


@<TRIPOS>ATOM
   1 C1            -0.0353     1.2936     0.0945 C.2     
   2 N2            -0.0354    -0.0734    -0.0120 N.pl3   
   3 C3            -1.2486    -0.7403    -0.0974 C.2     
   4 C4            -2.4000    -0.0819    -0.0779 C.2     
   5 N5            -2.4541     1.2958     0.0280 N.am    
   6 C6            -1.3108     2.0112     0.1210 C.2     
   7 C7             1.2878     1.6883     0.1613 C.2     
   8 C8             2.0251     0.5074     0.0894 C.2     
   9 N9             1.1809    -0.4919    -0.0115 N.2     
  10 O10           -1.3411     3.2249     0.2152 O.2     
  11 C11           -3.6877     1.9464     0.0448 C.ar    
  12 C12            3.5277     0.3979     0.1213 C.3     
  13 O13            4.0981     1.7030     0.2381 O.3     
  14 C14            5.4541     1.7821     0.2807 C.ar    
  15 C15            6.0748     3.0177     0.3935 C.ar    
  16 C16            7.4533     3.0955     0.4366 C.ar    
  17 C17            8.2145     1.9433     0.3675 C.ar    
  18 C18            7.5983     0.7107     0.2546 C.ar    
  19 C19            6.2199     0.6271     0.2173 C.ar    
  20 C20           -4.2543     2.3760    -1.1481 C.ar    
  21 C21           -5.4802     3.0214    -1.1210 C.ar    
  22 C22           -5.4800     2.7560     1.2574 C.ar    
  23 N23           -4.3092     2.1435     1.1978 N.ar    
  24 C24           -6.0995     3.2157     0.1029 C.ar    
  25 C25           -3.5441     2.1433    -2.4567 C.3     
  26 O26           -6.0821     2.9371     2.4597 O.3     
  27 C27           -5.3948     2.4420     3.6106 C.3     
  28 H28           -1.2560    -1.8170    -0.1819 H       
  29 H29           -3.3229    -0.6385    -0.1470 H       
  30 H30            1.6685     2.6951     0.2498 H       
  31 H31            3.8298    -0.2083     0.9753 H       
  32 H32            3.8776    -0.0705    -0.7987 H       
  33 H33            5.4807     3.9181     0.4471 H       
  34 H34            7.9370     4.0572     0.5240 H       
  35 H35            9.2921     2.0062     0.4013 H       
  36 H36            8.1950    -0.1878     0.2001 H       
  37 H37            5.7390    -0.3360     0.1292 H       
  38 H38           -5.9427     3.3658    -2.0342 H       
  39 H39           -7.0552     3.7156     0.1581 H       
  40 H40           -3.7685     1.1399    -2.8185 H       
  41 H41           -3.8813     2.8773    -3.1886 H       
  42 H42           -2.4688     2.2445    -2.3095 H       
  43 H43           -5.9837     2.6516     4.5035 H       
  44 H44           -5.2522     1.3658     3.5136 H       
  45 H45           -4.4242     2.9312     3.6925 H       
@<TRIPOS>BOND
   1    1    2 1
   2    1    7 2
   3    1    6 1
   4    2    3 1
   5    2    9 1
   6    3    4 2
   7    3   28 1
   8    4    5 1
   9    4   29 1
  10    5    6 am
  11    5   11 1
  12    6   10 2
  13    7    8 1
  14    7   30 1
  15    8    9 2
  16    8   12 1
  17   11   20 ar
  18   11   23 ar
  19   12   13 1
  20   12   31 1
  21   12   32 1
  22   13   14 1
  23   14   15 ar
  24   14   19 ar
  25   15   16 ar
  26   15   33 1
  27   16   17 ar
  28   16   34 1
  29   17   18 ar
  30   17   35 1
  31   18   19 ar
  32   18   36 1
  33   19   37 1
  34   20   21 ar
  35   20   25 1
  36   21   24 ar
  37   21   38 1
  38   22   23 ar
  39   22   26 1
  40   22   24 ar
  41   24   39 1
  42   25   40 1
  43   25   41 1
  44   25   42 1
  45   26   27 1
  46   27   43 1
  47   27   44 1
  48   27   45 1

#	End of record

