#	Name: ASD08178058
#	Creating user name:	WinNT
#	Creation time:	15. 06. 2019 21:18

#	Modifying user name:	WinNT
#	Modification time:	15. 06. 2019 21:18

#	Program:	/corina/corina34_cracker 3.40 0067  02.08.2006

@<TRIPOS>MOLECULE
ASD08178058
  54   57    0    0    0
SMALL
NO_CHARGES


@<TRIPOS>ATOM
   1 N1            -0.0150     1.2583     0.0090 N.2     
   2 N2             0.0021    -0.0041     0.0020 N.2     
   3 C3             1.1271     1.8769     0.0014 C.2     
   4 S4             2.3826     0.7116    -0.0169 S.3     
   5 C5             1.1681    -0.5677    -0.0121 C.2     
   6 N6             1.3017     3.2566     0.0067 N.am    
   7 C7             0.2284     4.0717     0.0214 C.2     
   8 O8            -0.8897     3.6019     0.0299 O.2     
   9 C9             1.4387    -2.0502    -0.0227 C.3     
  10 C10            1.5165    -2.5442    -1.4687 C.3     
  11 C11            1.7912    -4.0493    -1.4794 C.3     
  12 C12            1.8690    -4.5432    -2.9254 C.3     
  13 C13            2.1395    -6.0257    -2.9359 C.2     
  14 N14            1.2478    -6.9651    -2.9329 N.2     
  15 S15            3.7275    -6.7933    -2.9623 S.3     
  16 C16            2.9647    -8.3272    -2.9581 C.2     
  17 N17            1.6777    -8.1521    -2.9433 N.2     
  18 N18            3.6154    -9.5562    -2.9730 N.am    
  19 C19            2.8993   -10.6980    -2.9678 C.2     
  20 O20            1.6874   -10.6536    -2.9501 O.2     
  21 C21            3.6044   -12.0297    -2.9839 C.3     
  22 C22            0.4176     5.5667     0.0272 C.3     
  23 C23            1.0781     6.0164    -1.2905 C.3     
  24 C24            0.0675     7.0191    -1.8987 C.3     
  25 C25           -0.7595     7.4399    -0.6571 C.3     
  26 O26           -0.8597     6.2208     0.1098 O.3     
  27 O27            2.6446   -13.0889    -2.8914 O.3     
  28 C28            2.6987   -13.9046    -4.0726 C.3     
  29 C29            4.1279   -13.7049    -4.6370 C.3     
  30 C30            4.3644   -12.2039    -4.3164 C.3     
  31 H31            2.1959     3.6323    -0.0001 H       
  32 H32            2.3843    -2.2506     0.4811 H       
  33 H33            0.6334    -2.5702     0.4961 H       
  34 H34            0.5709    -2.3438    -1.9724 H       
  35 H35            2.3218    -2.0242    -1.9874 H       
  36 H36            2.7368    -4.2496    -0.9756 H       
  37 H37            0.9858    -4.5693    -0.9606 H       
  38 H38            0.9234    -4.3429    -3.4291 H       
  39 H39            2.6743    -4.0232    -3.4441 H       
  40 H40            4.5846    -9.5917    -2.9871 H       
  41 H41            4.3019   -12.0888    -2.1484 H       
  42 H42            1.0410     5.8580     0.8725 H       
  43 H43            2.0305     6.5079    -1.0916 H       
  44 H44            1.2188     5.1652    -1.9566 H       
  45 H45            0.5828     7.8765    -2.3316 H       
  46 H46           -0.5652     6.5320    -2.6406 H       
  47 H47           -0.2353     8.2086    -0.0893 H       
  48 H48           -1.7484     7.7885    -0.9548 H       
  49 H49            2.5357   -14.9516    -3.8171 H       
  50 H50            1.9558   -13.5710    -4.7971 H       
  51 H51            4.8477   -14.3361    -4.1159 H       
  52 H52            4.1548   -13.8861    -5.7115 H       
  53 H53            3.9367   -11.5693    -5.0926 H       
  54 H54            5.4268   -11.9976    -4.1868 H       
@<TRIPOS>BOND
   1    1    2 1
   2    1    3 2
   3    2    5 2
   4    3    4 1
   5    3    6 1
   6    4    5 1
   7    5    9 1
   8    6    7 am
   9    6   31 1
  10    7    8 2
  11    7   22 1
  12    9   10 1
  13    9   32 1
  14    9   33 1
  15   10   11 1
  16   10   34 1
  17   10   35 1
  18   11   12 1
  19   11   36 1
  20   11   37 1
  21   12   13 1
  22   12   38 1
  23   12   39 1
  24   13   14 2
  25   13   15 1
  26   14   17 1
  27   15   16 1
  28   16   17 2
  29   16   18 1
  30   18   19 am
  31   18   40 1
  32   19   20 2
  33   19   21 1
  34   21   27 1
  35   21   30 1
  36   21   41 1
  37   22   23 1
  38   22   26 1
  39   22   42 1
  40   23   24 1
  41   23   43 1
  42   23   44 1
  43   24   25 1
  44   24   45 1
  45   24   46 1
  46   25   26 1
  47   25   47 1
  48   25   48 1
  49   27   28 1
  50   28   29 1
  51   28   49 1
  52   28   50 1
  53   29   30 1
  54   29   51 1
  55   29   52 1
  56   30   53 1
  57   30   54 1

#	End of record

