#	Name: ASD01411102
#	Creating user name:	WinNT
#	Creation time:	15. 06. 2019 19:19

#	Modifying user name:	WinNT
#	Modification time:	15. 06. 2019 19:19

#	Program:	/corina/corina34_cracker 3.40 0067  02.08.2006

@<TRIPOS>MOLECULE
ASD01411102
  57   60    0    0    0
SMALL
NO_CHARGES


@<TRIPOS>ATOM
   1 C1            -0.0379     1.7537     0.1348 C.3     
   2 C2            -0.2175     0.2374     0.2976 C.3     
   3 O3             1.3529     2.0562    -0.0055 O.3     
   4 C4             0.7698    -0.2360     1.3348 C.2     
   5 C5             2.1192     1.8824     1.1930 C.3     
   6 C6             1.8284     0.5059     1.7431 C.2     
   7 C7             0.8110    -1.4765     2.0668 C.ar    
   8 C8             1.7195     2.9438     2.2198 C.3     
   9 C9             3.6105     2.0078     0.8749 C.3     
  10 N10            2.5378    -0.1826     2.6861 N.pl3   
  11 C11           -0.0179    -2.6194     2.0646 C.ar    
  12 C12            1.9491    -1.3959     2.9109 C.ar    
  13 C13            0.3423    -3.6565     2.9323 C.ar    
  14 C14            2.2807    -2.4457     3.7628 C.ar    
  15 C15            1.4556    -3.5655     3.7507 C.ar    
  16 C16            1.9712     4.3364     1.6382 C.3     
  17 C17            1.4484     5.3968     2.6094 C.3     
  18 O18            1.7526    -4.6076     4.5718 O.3     
  19 C19            0.8791    -5.7377     4.5277 C.3     
  20 C20            1.3702    -6.8006     5.5125 C.3     
  21 N21            0.4748    -7.9592     5.4673 N.pl3   
  22 C22            0.8408    -9.2369     5.2336 C.2     
  23 C23           -0.2758   -10.0001     5.2759 C.2     
  24 C24           -1.3614    -9.1601     5.5446 C.2     
  25 N25           -0.9119    -7.9372     5.6650 N.2     
  26 C26            3.9940     0.9729    -0.1513 C.2     
  27 O27            3.1430     0.2825    -0.6603 O.2     
  28 O28            5.2810     0.8180    -0.4998 O.3     
  29 C29           -1.1689    -2.7124     1.2177 C.1     
  30 N30           -2.0820    -2.7862     0.5459 N.1     
  31 C31            3.4869    -2.3718     4.6632 C.3     
  32 H32           -0.5742     2.0899    -0.7526 H       
  33 H33           -0.4338     2.2630     1.0134 H       
  34 H34           -1.2330     0.0196     0.6283 H       
  35 H35           -0.0229    -0.2613    -0.6518 H       
  36 H36            0.6619     2.8363     2.4606 H       
  37 H37            2.3130     2.8154     3.1250 H       
  38 H38            3.8156     3.0033     0.4812 H       
  39 H39            4.1905     1.8501     1.7842 H       
  40 H40            3.3382     0.1403     3.1288 H       
  41 H41           -0.2630    -4.5504     2.9643 H       
  42 H42            3.0411     4.4788     1.4863 H       
  43 H43            1.4529     4.4307     0.6839 H       
  44 H44            1.9666     5.3025     3.5637 H       
  45 H45            1.6277     6.3889     2.1951 H       
  46 H46            0.3785     5.2545     2.7614 H       
  47 H47           -0.1297    -5.4280     4.8006 H       
  48 H48            0.8718    -6.1521     3.5196 H       
  49 H49            2.3791    -7.1103     5.2396 H       
  50 H50            1.3776    -6.3862     6.5207 H       
  51 H51            1.8450    -9.5874     5.0461 H       
  52 H52           -0.3208   -11.0690     5.1282 H       
  53 H53           -2.3920    -9.4683     5.6405 H       
  54 H54            5.4781     0.1416    -1.1621 H       
  55 H55            3.1997    -1.9362     5.6202 H       
  56 H56            3.8818    -3.3748     4.8245 H       
  57 H57            4.2515    -1.7510     4.1962 H       
@<TRIPOS>BOND
   1    1    2 1
   2    1    3 1
   3    1   32 1
   4    1   33 1
   5    2    4 1
   6    2   34 1
   7    2   35 1
   8    3    5 1
   9    4    6 2
  10    4    7 1
  11    5    8 1
  12    5    9 1
  13    5    6 1
  14    6   10 1
  15    7   11 ar
  16    7   12 ar
  17    8   16 1
  18    8   36 1
  19    8   37 1
  20    9   26 1
  21    9   38 1
  22    9   39 1
  23   10   12 1
  24   10   40 1
  25   11   13 ar
  26   11   29 1
  27   12   14 ar
  28   13   15 ar
  29   13   41 1
  30   14   15 ar
  31   14   31 1
  32   15   18 1
  33   16   17 1
  34   16   42 1
  35   16   43 1
  36   17   44 1
  37   17   45 1
  38   17   46 1
  39   18   19 1
  40   19   20 1
  41   19   47 1
  42   19   48 1
  43   20   21 1
  44   20   49 1
  45   20   50 1
  46   21   22 1
  47   21   25 1
  48   22   23 2
  49   22   51 1
  50   23   24 1
  51   23   52 1
  52   24   25 2
  53   24   53 1
  54   26   27 2
  55   26   28 1
  56   28   54 1
  57   29   30 3
  58   31   55 1
  59   31   56 1
  60   31   57 1

#	End of record

