#	Name: ASD01410189
#	Creating user name:	WinNT
#	Creation time:	15. 06. 2019 19:16

#	Modifying user name:	WinNT
#	Modification time:	15. 06. 2019 19:16

#	Program:	/corina/corina34_cracker 3.40 0067  02.08.2006

@<TRIPOS>MOLECULE
ASD01410189
  47   50    0    0    0
SMALL
NO_CHARGES


@<TRIPOS>ATOM
   1 C1            -0.0156     1.3945    -0.1360 C.ar    
   2 C2             0.0194     0.0928     0.4049 C.ar    
   3 C3            -1.1638    -0.5071     0.8335 C.ar    
   4 C4            -2.3485     0.1591     0.7310 C.ar    
   5 C5            -2.3974     1.4545     0.1949 C.ar    
   6 C6            -1.2285     2.0755    -0.2348 C.ar    
   7 C7             1.3645     1.7314    -0.4836 C.2     
   8 C8             2.1266     0.6612    -0.1485 C.2     
   9 N9             1.3277    -0.3251     0.3847 N.pl3   
  10 C10            1.4131    -1.8062     2.3291 C.3     
  11 C11            1.9090    -3.1657     2.8259 C.3     
  12 C12            1.2718    -4.2775     1.9899 C.3     
  13 C13            1.6611    -4.0982     0.5212 C.3     
  14 C14            1.1653    -2.7387     0.0245 C.3     
  15 C15            1.8025    -1.6269     0.8604 C.3     
  16 C16           -3.6883     2.1611     0.0914 C.2     
  17 O17           -3.7312     3.2831    -0.3729 O.2     
  18 O18           -4.8197     1.5622     0.5118 O.3     
  19 C19            5.6646     1.5768    -0.2097 C.ar    
  20 C20            6.2922     0.4263    -0.6505 C.ar    
  21 C21            5.5302    -0.6974    -0.9408 C.ar    
  22 C22            4.1585    -0.6257    -0.7773 C.ar    
  23 C23            3.5908     0.5676    -0.3286 C.ar    
  24 N24            4.3562     1.6199    -0.0621 N.ar    
  25 C25            1.8470     3.0207    -1.0966 C.3     
  26 H26           -1.1417    -1.5041     1.2480 H       
  27 H27           -3.2590    -0.3154     1.0658 H       
  28 H28           -1.2614     3.0727    -0.6482 H       
  29 H29            0.3285    -1.7575     2.4260 H       
  30 H30            1.8671    -1.0141     2.9246 H       
  31 H31            2.9936    -3.2144     2.7289 H       
  32 H32            1.6316    -3.2934     3.8722 H       
  33 H33            1.6250    -5.2460     2.3438 H       
  34 H34            0.1872    -4.2288     2.0869 H       
  35 H35            2.7457    -4.1469     0.4243 H       
  36 H36            1.2072    -4.8903    -0.0743 H       
  37 H37            1.4426    -2.6110    -1.0219 H       
  38 H38            0.0807    -2.6900     0.1214 H       
  39 H39            2.8870    -1.6756     0.7635 H       
  40 H40           -5.6412     2.0647     0.4238 H       
  41 H41            6.2557     2.4508     0.0210 H       
  42 H42            7.3655     0.4021    -0.7683 H       
  43 H43            5.9981    -1.6072    -1.2868 H       
  44 H44            3.5356    -1.4810    -0.9942 H       
  45 H45            2.1040     3.7253    -0.3057 H       
  46 H46            2.7272     2.8249    -1.7089 H       
  47 H47            1.0587     3.4446    -1.7187 H       
@<TRIPOS>BOND
   1    1    2 ar
   2    1    7 1
   3    1    6 ar
   4    2    3 ar
   5    2    9 1
   6    3    4 ar
   7    3   26 1
   8    4    5 ar
   9    4   27 1
  10    5    6 ar
  11    5   16 1
  12    6   28 1
  13    7    8 2
  14    7   25 1
  15    8    9 1
  16    8   23 1
  17    9   15 1
  18   10   11 1
  19   10   15 1
  20   10   29 1
  21   10   30 1
  22   11   12 1
  23   11   31 1
  24   11   32 1
  25   12   13 1
  26   12   33 1
  27   12   34 1
  28   13   14 1
  29   13   35 1
  30   13   36 1
  31   14   15 1
  32   14   37 1
  33   14   38 1
  34   15   39 1
  35   16   17 2
  36   16   18 1
  37   18   40 1
  38   19   20 ar
  39   19   24 ar
  40   19   41 1
  41   20   21 ar
  42   20   42 1
  43   21   22 ar
  44   21   43 1
  45   22   23 ar
  46   22   44 1
  47   23   24 ar
  48   25   45 1
  49   25   46 1
  50   25   47 1

#	End of record

