#	Name: ASD01412057
#	Creating user name:	WinNT
#	Creation time:	15. 06. 2019 19:20

#	Modifying user name:	WinNT
#	Modification time:	15. 06. 2019 19:20

#	Program:	/corina/corina34_cracker 3.40 0067  02.08.2006

@<TRIPOS>MOLECULE
ASD01412057
  61   65    0    0    0
SMALL
NO_CHARGES


@<TRIPOS>ATOM
   1 C1            -0.0177     1.3965    -0.0599 C.ar    
   2 C2             0.0023    -0.0006    -0.0522 C.ar    
   3 C3            -1.1808    -0.7213    -0.0225 C.ar    
   4 C4            -2.3979    -0.0510    -0.0003 C.ar    
   5 C5            -2.4073     1.3561    -0.0083 C.ar    
   6 C6            -1.2064     2.0692    -0.0326 C.ar    
   7 N7            -3.5838    -0.7541     0.0289 N.pl3   
   8 C8            -4.7819    -0.1544     0.0507 C.2     
   9 C9            -4.9165     1.2179     0.0456 C.2     
  10 C10           -3.7043     2.0525     0.0156 C.2     
  11 O11           -3.7716     3.2696     0.0106 O.2     
  12 C12           -3.5316    -2.2182     0.0359 C.3     
  13 C13           -3.4834    -2.7124     1.4587 C.ar    
  14 C14           -4.6577    -2.9815     2.1368 C.ar    
  15 C15           -4.6141    -3.4347     3.4418 C.ar    
  16 C16           -3.3950    -3.6192     4.0694 C.ar    
  17 C17           -2.2202    -3.3497     3.3902 C.ar    
  18 C18           -2.2649    -2.9018     2.0834 C.ar    
  19 Cl19          -3.3395    -4.1879     5.7087 Cl      
  20 F20            1.1441     2.0854    -0.0890 F       
  21 C21           -6.2502     1.8380     0.0692 C.2     
  22 N22           -6.3695     3.1760     0.1793 N.am    
  23 C23           -7.6896     3.8040     0.0839 C.3     
  24 C24           -7.5482     5.2964     0.2385 C.ar    
  25 C25           -7.3457     6.0903    -0.8749 C.ar    
  26 C26           -7.2159     7.4591    -0.7337 C.ar    
  27 C27           -7.2889     8.0346     0.5223 C.ar    
  28 C28           -7.4916     7.2395     1.6363 C.ar    
  29 C29           -7.6269     5.8715     1.4932 C.ar    
  30 Cl30          -7.1255     9.7537     0.7006 Cl      
  31 N31            1.2211    -0.6741    -0.0749 N.3     
  32 C32            1.3765    -1.5226     1.1156 C.3     
  33 C33            2.6990    -2.2880     1.0210 C.3     
  34 O34            3.7741    -1.3561     0.8763 O.3     
  35 C35            3.6552    -0.5140    -0.2735 C.3     
  36 C36            2.3424     0.2695    -0.1921 C.3     
  37 O37           -7.2455     1.1432    -0.0106 O.2     
  38 H38           -1.1571    -1.8011    -0.0170 H       
  39 H39           -1.2178     3.1492    -0.0384 H       
  40 H40           -5.6716    -0.7662     0.0728 H       
  41 H41           -4.4189    -2.6157    -0.4570 H       
  42 H42           -2.6404    -2.5525    -0.4953 H       
  43 H43           -5.6093    -2.8372     1.6469 H       
  44 H44           -5.5315    -3.6446     3.9716 H       
  45 H45           -1.2682    -3.4935     3.8797 H       
  46 H46           -1.3478    -2.6914     1.5531 H       
  47 H47           -5.5813     3.7231     0.3216 H       
  48 H48           -8.1294     3.5795    -0.8879 H       
  49 H49           -8.3342     3.4164     0.8727 H       
  50 H50           -7.2884     5.6409    -1.8553 H       
  51 H51           -7.0573     8.0792    -1.6036 H       
  52 H52           -7.5487     7.6883     2.6170 H       
  53 H53           -7.7851     5.2507     2.3627 H       
  54 H54            1.3802    -0.8986     2.0093 H       
  55 H55            0.5493    -2.2304     1.1685 H       
  56 H56            2.8455    -2.8748     1.9278 H       
  57 H57            2.6742    -2.9521     0.1570 H       
  58 H58            4.4933     0.1823    -0.3029 H       
  59 H59            3.6582    -1.1265    -1.1751 H       
  60 H60            2.2203     0.8698    -1.0936 H       
  61 H61            2.3616     0.9221     0.6808 H       
@<TRIPOS>BOND
   1    1    2 ar
   2    1   20 1
   3    1    6 ar
   4    2    3 ar
   5    2   31 1
   6    3    4 ar
   7    3   38 1
   8    4    5 ar
   9    4    7 1
  10    5    6 ar
  11    5   10 1
  12    6   39 1
  13    7    8 1
  14    7   12 1
  15    8    9 2
  16    8   40 1
  17    9   10 1
  18    9   21 1
  19   10   11 2
  20   12   13 1
  21   12   41 1
  22   12   42 1
  23   13   14 ar
  24   13   18 ar
  25   14   15 ar
  26   14   43 1
  27   15   16 ar
  28   15   44 1
  29   16   17 ar
  30   16   19 1
  31   17   18 ar
  32   17   45 1
  33   18   46 1
  34   21   22 am
  35   21   37 2
  36   22   23 1
  37   22   47 1
  38   23   24 1
  39   23   48 1
  40   23   49 1
  41   24   25 ar
  42   24   29 ar
  43   25   26 ar
  44   25   50 1
  45   26   27 ar
  46   26   51 1
  47   27   28 ar
  48   27   30 1
  49   28   29 ar
  50   28   52 1
  51   29   53 1
  52   31   32 1
  53   31   36 1
  54   32   33 1
  55   32   54 1
  56   32   55 1
  57   33   34 1
  58   33   56 1
  59   33   57 1
  60   34   35 1
  61   35   36 1
  62   35   58 1
  63   35   59 1
  64   36   60 1
  65   36   61 1

#	End of record

