#	Name: ASD01140687
#	Creating user name:	WinNT
#	Creation time:	15. 06. 2019 19:01

#	Modifying user name:	WinNT
#	Modification time:	15. 06. 2019 19:01

#	Program:	/corina/corina34_cracker 3.40 0067  02.08.2006

@<TRIPOS>MOLECULE
ASD01140687
  45   48    0    0    0
SMALL
NO_CHARGES


@<TRIPOS>ATOM
   1 C1            -0.3314     1.2653    -0.3327 C.3     
   2 C2            -0.2671    -0.2608    -0.2455 C.3     
   3 O3             0.4944    -0.6469     0.9290 O.3     
   4 C4             0.6462    -1.9673     1.1531 C.2     
   5 O5             0.1555    -2.7740     0.3876 O.2     
   6 C6             1.4061    -2.4323     2.3244 C.2     
   7 N7             2.0015    -1.6478     3.2625 N.2     
   8 C8             2.5739    -2.4086     4.1521 C.2     
   9 N9             2.3553    -3.7108     3.8228 N.pl3   
  10 C10            1.6384    -3.7272     2.6733 C.2     
  11 C11            1.2163    -4.9654     1.9244 C.3     
  12 H12            0.6714    -4.6841     1.0233 H       
  13 C13            0.3276    -5.8335     2.8175 C.3     
  14 N14            2.4302    -5.7043     1.5608 N.2     
  15 C15            3.2439    -6.1547     2.4535 C.2     
  16 C16            4.4196    -6.8976     1.9459 C.ar    
  17 C17            4.2477    -8.1126     1.2827 C.ar    
  18 C18            5.3470    -8.8003     0.8119 C.ar    
  19 C19            6.6195    -8.2887     0.9961 C.ar    
  20 C20            6.7994    -7.0850     1.6523 C.ar    
  21 C21            5.7062    -6.3820     2.1239 C.ar    
  22 F22            5.8817    -5.2030     2.7598 F       
  23 C23            3.1470    -6.0202     3.9118 C.ar    
  24 C24            3.4738    -7.1343     4.6991 C.ar    
  25 C25            3.4433    -7.0529     6.0732 C.ar    
  26 Br26           3.8823    -8.5671     7.1174 Br      
  27 C27            3.0923    -5.8648     6.6930 C.ar    
  28 C28            2.7505    -4.7655     5.9330 C.ar    
  29 C29            2.7625    -4.8388     4.5395 C.ar    
  30 H30            0.6788     1.6680    -0.4061 H       
  31 H31           -0.9030     1.5552    -1.2143 H       
  32 H32           -0.8158     1.6602     0.5604 H       
  33 H33           -1.2773    -0.6635    -0.1721 H       
  34 H34            0.2174    -0.6556    -1.1386 H       
  35 H35            3.1309    -2.0624     5.0101 H       
  36 H36           -0.5581    -5.2685     3.1079 H       
  37 H37            0.0256    -6.7269     2.2710 H       
  38 H38            0.8823    -6.1236     3.7099 H       
  39 H39            3.2556    -8.5144     1.1383 H       
  40 H40            5.2141    -9.7411     0.2984 H       
  41 H41            7.4761    -8.8323     0.6258 H       
  42 H42            7.7951    -6.6912     1.7928 H       
  43 H43            3.7512    -8.0635     4.2235 H       
  44 H44            3.0858    -5.7992     7.7710 H       
  45 H45            2.4760    -3.8415     6.4200 H       
@<TRIPOS>BOND
   1    1    2 1
   2    1   30 1
   3    1   31 1
   4    1   32 1
   5    2    3 1
   6    2   33 1
   7    2   34 1
   8    3    4 1
   9    4    5 2
  10    4    6 1
  11    6   10 2
  12    6    7 1
  13    7    8 2
  14    8    9 1
  15    8   35 1
  16    9   29 1
  17    9   10 1
  18   10   11 1
  19   11   12 1
  20   11   13 1
  21   11   14 1
  22   13   36 1
  23   13   37 1
  24   13   38 1
  25   14   15 2
  26   15   16 1
  27   15   23 1
  28   16   21 ar
  29   16   17 ar
  30   17   18 ar
  31   17   39 1
  32   18   19 ar
  33   18   40 1
  34   19   20 ar
  35   19   41 1
  36   20   21 ar
  37   20   42 1
  38   21   22 1
  39   23   29 ar
  40   23   24 ar
  41   24   25 ar
  42   24   43 1
  43   25   26 1
  44   25   27 ar
  45   27   28 ar
  46   27   44 1
  47   28   29 ar
  48   28   45 1

#	End of record

