#	Name: ASD01811024
#	Creating user name:	WinNT
#	Creation time:	15. 06. 2019 19:25

#	Modifying user name:	WinNT
#	Modification time:	15. 06. 2019 19:25

#	Program:	/corina/corina34_cracker 3.40 0067  02.08.2006

@<TRIPOS>MOLECULE
ASD01811024
  55   57    0    0    0
SMALL
NO_CHARGES


@<TRIPOS>ATOM
   1 C1             0.4365     0.5975     1.9717 C.2     
   2 C2             0.2680    -0.4663     0.9605 C.ar    
   3 C3             1.2508    -0.6704    -0.0120 C.ar    
   4 C4             1.0946    -1.6641    -0.9574 C.ar    
   5 C5            -0.0321    -2.4626    -0.9495 C.ar    
   6 C6            -1.0224    -2.2693     0.0164 C.ar    
   7 C7            -0.8686    -1.2724     0.9775 C.ar    
   8 O8             1.4757     1.2240     2.0268 O.2     
   9 O9            -0.5644     0.8766     2.8289 O.3     
  10 C10            2.4834     0.1964    -0.0287 C.3     
  11 C11           -0.1938    -3.5448    -1.9857 C.3     
  12 C12           -1.1010    -3.0424    -3.1106 C.3     
  13 C13           -2.2281    -3.1250     0.0229 C.2     
  14 O14           -2.1151    -4.3347    -0.0136 O.2     
  15 N15           -3.4526    -2.5637     0.0693 N.am    
  16 C16           -4.6546    -3.3989     0.1967 C.3     
  17 C17           -5.6255    -3.0414    -0.9330 C.3     
  18 C18           -5.9004    -1.5361    -0.9067 C.3     
  19 C19           -4.5933    -0.7731    -1.1336 C.3     
  20 C20           -3.6103    -1.1046    -0.0005 C.3     
  21 C21           -6.8817    -1.1858    -1.9955 C.ar    
  22 C22           -8.0940    -0.6045    -1.6689 C.ar    
  23 C23           -8.9969    -0.2813    -2.6605 C.ar    
  24 C24           -8.6848    -0.5417    -3.9964 C.ar    
  25 C25           -7.4593    -1.1282    -4.3188 C.ar    
  26 C26           -6.5637    -1.4419    -3.3175 C.ar    
  27 C27           -9.6174    -0.2093    -5.0309 C.1     
  28 N28          -10.3573     0.0544    -5.8516 N.1     
  29 C29           -0.3289     1.9341     3.7956 C.3     
  30 H30            1.8569    -1.8174    -1.7070 H       
  31 H31           -1.6289    -1.1222     1.7297 H       
  32 H32            3.2095    -0.1906     0.6861 H       
  33 H33            2.9185     0.1901    -1.0281 H       
  34 H34            2.2138     1.2168     0.2437 H       
  35 H35            0.7824    -3.8048    -2.3949 H       
  36 H36           -0.6407    -4.4256    -1.5245 H       
  37 H37           -0.6541    -2.1616    -3.5718 H       
  38 H38           -1.2179    -3.8251    -3.8601 H       
  39 H39           -2.0772    -2.7824    -2.7014 H       
  40 H40           -4.3784    -4.4507     0.1220 H       
  41 H41           -5.1295    -3.2113     1.1597 H       
  42 H42           -5.1843    -3.3140    -1.8917 H       
  43 H43           -6.5605    -3.5844    -0.7947 H       
  44 H44           -6.3186    -1.2602     0.0613 H       
  45 H45           -4.1619    -1.0670    -2.0904 H       
  46 H46           -4.7936     0.2983    -1.1380 H       
  47 H47           -4.0018    -0.7337     0.9468 H       
  48 H48           -2.6449    -0.6421    -0.2054 H       
  49 H49           -8.3342    -0.4036    -0.6353 H       
  50 H50           -9.9432     0.1718    -2.4042 H       
  51 H51           -7.2116    -1.3323    -5.3500 H       
  52 H52           -5.6138    -1.8917    -3.5658 H       
  53 H53            0.5263     1.6727     4.4189 H       
  54 H54           -0.1241     2.8672     3.2706 H       
  55 H55           -1.2119     2.0563     4.4228 H       
@<TRIPOS>BOND
   1    1    2 1
   2    1    8 2
   3    1    9 1
   4    2    3 ar
   5    2    7 ar
   6    3    4 ar
   7    3   10 1
   8    4    5 ar
   9    4   30 1
  10    5    6 ar
  11    5   11 1
  12    6    7 ar
  13    6   13 1
  14    7   31 1
  15    9   29 1
  16   10   32 1
  17   10   33 1
  18   10   34 1
  19   11   12 1
  20   11   35 1
  21   11   36 1
  22   12   37 1
  23   12   38 1
  24   12   39 1
  25   13   14 2
  26   13   15 am
  27   15   16 1
  28   15   20 1
  29   16   17 1
  30   16   40 1
  31   16   41 1
  32   17   18 1
  33   17   42 1
  34   17   43 1
  35   18   19 1
  36   18   21 1
  37   18   44 1
  38   19   20 1
  39   19   45 1
  40   19   46 1
  41   20   47 1
  42   20   48 1
  43   21   22 ar
  44   21   26 ar
  45   22   23 ar
  46   22   49 1
  47   23   24 ar
  48   23   50 1
  49   24   25 ar
  50   24   27 1
  51   25   26 ar
  52   25   51 1
  53   26   52 1
  54   27   28 3
  55   29   53 1
  56   29   54 1
  57   29   55 1

#	End of record

