#	Name: ASD00170050
#	Creating user name:	WinNT
#	Creation time:	15. 06. 2019 18:31

#	Modifying user name:	WinNT
#	Modification time:	15. 06. 2019 18:31

#	Program:	/corina/corina34_cracker 3.40 0067  02.08.2006

@<TRIPOS>MOLECULE
ASD00170050
  32   33    0    0    0
SMALL
NO_CHARGES


@<TRIPOS>ATOM
   1 C1            -0.0215     1.3259    -0.1140 C.2     
   2 C2             0.0015     0.0026    -0.1442 C.2     
   3 C3            -1.3078    -0.5945     0.0156 C.2     
   4 C4            -2.3035     0.3431     0.1657 C.2     
   5 S5            -1.6558     1.9191     0.1206 S.3     
   6 N6            -3.6410     0.0482     0.3347 N.pl3   
   7 C7             1.1944     2.2049    -0.2557 C.3     
   8 C8            -1.5462    -2.0374     0.0165 C.2     
   9 C9            -1.7878    -2.7480    -1.2584 C.ar    
  10 O10           -1.5458    -2.6539     1.0665 O.2     
  11 C11           -1.9084    -4.1384    -1.2738 C.ar    
  12 C12           -2.1342    -4.7949    -2.4659 C.ar    
  13 C13           -2.2406    -4.0781    -3.6446 C.ar    
  14 C14           -2.1215    -2.6996    -3.6363 C.ar    
  15 C15           -1.9019    -2.0304    -2.4500 C.ar    
  16 C16            1.2630    -0.8013    -0.3273 C.3     
  17 C17            1.8784    -1.1032     1.0405 C.3     
  18 H18           -3.9460    -0.8708     0.2775 H       
  19 H19           -4.2761     0.7599     0.5107 H       
  20 H20            1.3536     2.4378    -1.3086 H       
  21 H21            1.0415     3.1290     0.3017 H       
  22 H22            2.0673     1.6837     0.1372 H       
  23 H23           -1.8249    -4.6991    -0.3546 H       
  24 H24           -2.2277    -5.8708    -2.4793 H       
  25 H25           -2.4170    -4.5968    -4.5753 H       
  26 H26           -2.2052    -2.1459    -4.5598 H       
  27 H27           -1.8092    -0.9544    -2.4448 H       
  28 H28            1.0272    -1.7370    -0.8342 H       
  29 H29            1.9728    -0.2318    -0.9274 H       
  30 H30            2.7909    -1.6846     0.9081 H       
  31 H31            2.1142    -0.1675     1.5474 H       
  32 H32            1.1687    -1.6726     1.6406 H       
@<TRIPOS>BOND
   1    1    2 2
   2    1    7 1
   3    1    5 1
   4    2    3 1
   5    2   16 1
   6    3    4 2
   7    3    8 1
   8    4    5 1
   9    4    6 1
  10    6   18 1
  11    6   19 1
  12    7   20 1
  13    7   21 1
  14    7   22 1
  15    8    9 1
  16    8   10 2
  17    9   11 ar
  18    9   15 ar
  19   11   12 ar
  20   11   23 1
  21   12   13 ar
  22   12   24 1
  23   13   14 ar
  24   13   25 1
  25   14   15 ar
  26   14   26 1
  27   15   27 1
  28   16   17 1
  29   16   28 1
  30   16   29 1
  31   17   30 1
  32   17   31 1
  33   17   32 1

#	End of record

