#	Name: ASD01209132
#	Creating user name:	WinNT
#	Creation time:	15. 06. 2019 19:11

#	Modifying user name:	WinNT
#	Modification time:	15. 06. 2019 19:11

#	Program:	/corina/corina34_cracker 3.40 0067  02.08.2006

@<TRIPOS>MOLECULE
ASD01209132
  64   66    0    0    0
SMALL
NO_CHARGES


@<TRIPOS>ATOM
   1 C1            -0.7505     1.8927     0.0079 C.3     
   2 C2             1.9130    -0.8486    -3.6350 C.ar    
   3 S3            -0.5763     0.0872     0.0281 S.o2    
   4 O4             0.2370    -0.3231     1.1187 O.2     
   5 O5            -1.8266    -0.5373    -0.2290 O.2     
   6 C6             2.7418    -1.1601    -4.8545 C.3     
   7 C7             2.4775    -0.1266    -5.9189 C.2     
   8 N8             3.1997    -0.1312    -7.0568 N.am    
   9 O9             1.6148     0.7094    -5.7516 O.2     
  10 C10            2.3678    -2.5456    -5.3849 C.3     
  11 C11            2.7535    -3.6078    -4.3535 C.3     
  12 C12            2.2527    -4.9900    -4.8077 C.3     
  13 C13            3.5015    -5.8825    -4.9620 C.3     
  14 C14            4.5576    -5.2201    -4.0427 C.3     
  15 C15            4.2893    -3.7085    -4.2476 C.3     
  16 C16            2.5315    -0.6017    -2.4236 C.ar    
  17 C17            1.7713    -0.3163    -1.3049 C.ar    
  18 C18            0.3927    -0.2771    -1.3977 C.ar    
  19 C19           -0.2258    -0.5240    -2.6091 C.ar    
  20 C20            0.5346    -0.8042    -3.7290 C.ar    
  21 C21            2.8869     0.7537    -8.0821 C.2     
  22 P22            2.7079     3.0170   -11.6869 P.3     
  23 O23            1.4771     2.7288   -12.4566 O.2     
  24 O24            3.9911     2.5125   -12.5181 O.3     
  25 O25            2.8228     4.6026   -11.4324 O.3     
  26 C26            4.2638     2.9292   -13.8575 C.3     
  27 C27            5.5533     2.2658   -14.3454 C.3     
  28 C28            2.7906     5.5647   -12.4885 C.3     
  29 C29            2.9229     6.9713   -11.9012 C.3     
  30 N30            1.9246     1.6214    -8.0462 N.2     
  31 C31            1.7688     2.3854    -9.1112 C.2     
  32 C32            2.6412     2.1521   -10.0937 C.2     
  33 S33            3.7201     0.8611    -9.5712 S.3     
  34 H34            0.2361     2.3535     0.0578 H       
  35 H35           -1.2486     2.1994    -0.9118 H       
  36 H36           -1.3435     2.2102     0.8656 H       
  37 H37            3.7988    -1.1459    -4.5888 H       
  38 H38            3.9378    -0.7520    -7.1602 H       
  39 H39            1.2937    -2.5878    -5.5656 H       
  40 H40            2.9007    -2.7339    -6.3170 H       
  41 H41            2.3272    -3.3569    -3.3822 H       
  42 H42            1.5840    -5.4103    -4.0564 H       
  43 H43            1.7348    -4.9041    -5.7629 H       
  44 H44            3.2883    -6.8980    -4.6282 H       
  45 H45            3.8438    -5.8840    -5.9968 H       
  46 H46            4.3965    -5.5036    -3.0026 H       
  47 H47            5.5664    -5.4803    -4.3632 H       
  48 H48            4.7588    -3.3589    -5.1671 H       
  49 H49            4.6510    -3.1375    -3.3925 H       
  50 H50            3.6087    -0.6323    -2.3511 H       
  51 H51            2.2545    -0.1241    -0.3583 H       
  52 H52           -1.3030    -0.4937    -2.6815 H       
  53 H53            0.0514    -0.9971    -4.6754 H       
  54 H54            3.4371     2.6362   -14.5046 H       
  55 H55            4.3799     4.0126   -13.8844 H       
  56 H56            5.7613     2.5836   -15.3671 H       
  57 H57            6.3800     2.5588   -13.6983 H       
  58 H58            5.4372     1.1823   -14.3185 H       
  59 H59            3.6165     5.3784   -13.1750 H       
  60 H60            1.8458     5.4828   -13.0259 H       
  61 H61            2.0970     7.1576   -11.2147 H       
  62 H62            3.8677     7.0532   -11.3637 H       
  63 H63            2.8984     7.7051   -12.7067 H       
  64 H64            0.9978     3.1383    -9.1817 H       
@<TRIPOS>BOND
   1    1    3 1
   2    1   34 1
   3    1   35 1
   4    1   36 1
   5    2    6 1
   6    2   16 ar
   7    2   20 ar
   8    3    4 2
   9    3    5 2
  10    3   18 1
  11    6    7 1
  12    6   10 1
  13    6   37 1
  14    7    8 am
  15    7    9 2
  16    8   21 1
  17    8   38 1
  18   10   11 1
  19   10   39 1
  20   10   40 1
  21   11   12 1
  22   11   15 1
  23   11   41 1
  24   12   13 1
  25   12   42 1
  26   12   43 1
  27   13   14 1
  28   13   44 1
  29   13   45 1
  30   14   15 1
  31   14   46 1
  32   14   47 1
  33   15   48 1
  34   15   49 1
  35   16   17 ar
  36   16   50 1
  37   17   18 ar
  38   17   51 1
  39   18   19 ar
  40   19   20 ar
  41   19   52 1
  42   20   53 1
  43   21   30 2
  44   21   33 1
  45   22   23 2
  46   22   24 1
  47   22   25 1
  48   22   32 1
  49   24   26 1
  50   25   28 1
  51   26   27 1
  52   26   54 1
  53   26   55 1
  54   27   56 1
  55   27   57 1
  56   27   58 1
  57   28   29 1
  58   28   59 1
  59   28   60 1
  60   29   61 1
  61   29   62 1
  62   29   63 1
  63   30   31 1
  64   31   32 2
  65   31   64 1
  66   32   33 1

#	End of record

