#	Name: ASD01910738
#	Creating user name:	WinNT
#	Creation time:	15. 06. 2019 19:56

#	Modifying user name:	WinNT
#	Modification time:	15. 06. 2019 19:56

#	Program:	/corina/corina34_cracker 3.40 0067  02.08.2006

@<TRIPOS>MOLECULE
ASD01910738
  54   57    0    0    0
SMALL
NO_CHARGES


@<TRIPOS>ATOM
   1 C1            12.4216    -2.2986     4.1744 C.ar    
   2 N2            12.9662    -2.4591     2.9800 N.ar    
   3 C3            12.2901    -2.1315     1.8953 C.ar    
   4 C4            11.0011    -1.6161     2.0098 C.ar    
   5 N5            10.4586    -1.4568     3.2101 N.ar    
   6 C6            11.1429    -1.7875     4.2921 C.ar    
   7 N7            10.2854    -1.2693     0.8699 N.3     
   8 C8             8.9567    -0.7498     1.2203 C.3     
   9 C9             8.2729    -0.2125    -0.0415 C.3     
  10 N10            8.2773    -1.2715    -1.0622 N.am    
  11 C11            9.5527    -1.9365    -1.3696 C.3     
  12 C12           10.1861    -2.4058    -0.0555 C.3     
  13 C13            7.1426    -1.6236    -1.6985 C.2     
  14 C14            7.1894    -2.6011    -2.8071 C.ar    
  15 O15            6.0807    -1.1377    -1.3612 O.2     
  16 C16            6.1831    -3.5608    -2.9367 C.ar    
  17 C17            6.2243    -4.4746    -3.9716 C.ar    
  18 C18            7.2587    -4.4469    -4.8848 C.ar    
  19 C19            8.2732    -3.4916    -4.7675 C.ar    
  20 C20            8.2343    -2.5628    -3.7277 C.ar    
  21 C21            9.3463    -3.4638    -5.7153 C.1     
  22 C22           10.2261    -3.4410    -6.4923 C.1     
  23 C23           11.2992    -3.4133    -7.4400 C.ar    
  24 C24            7.2953    -5.4484    -6.0103 C.3     
  25 C25           12.3136    -2.4595    -7.3242 C.ar    
  26 C26           13.3444    -2.4391    -8.2406 C.ar    
  27 C27           13.3754    -3.3602    -9.2726 C.ar    
  28 C28           12.3738    -4.3076    -9.3939 C.ar    
  29 C29           11.3401    -4.3438    -8.4819 C.ar    
  30 C30           12.4165    -5.3062   -10.5218 C.3     
  31 H31           12.9759    -2.5719     5.0601 H       
  32 H32           12.7356    -2.2625     0.9202 H       
  33 H33           10.7019    -1.6581     5.2694 H       
  34 H34            8.3539    -1.5511     1.6475 H       
  35 H35            9.0612     0.0550     1.9480 H       
  36 H36            7.2456     0.0685     0.1902 H       
  37 H37            8.8182     0.6555    -0.4121 H       
  38 H38            9.3714    -2.7952    -2.0159 H       
  39 H39           10.2209    -1.2342    -1.8679 H       
  40 H40           11.1821    -2.8021    -0.2530 H       
  41 H41            9.5661    -3.1841     0.3895 H       
  42 H42            5.3707    -3.5888    -2.2256 H       
  43 H43            5.4434    -5.2147    -4.0664 H       
  44 H44            9.0149    -1.8226    -3.6319 H       
  45 H45            6.7649    -5.0451    -6.8729 H       
  46 H46            8.3310    -5.6510    -6.2828 H       
  47 H47            6.8164    -6.3735    -5.6892 H       
  48 H48           12.2904    -1.7397    -6.5193 H       
  49 H49           14.1289    -1.7021    -8.1526 H       
  50 H50           14.1849    -3.3394    -9.9871 H       
  51 H51           10.5594    -5.0839    -8.5776 H       
  52 H52           12.9653    -6.1920   -10.2022 H       
  53 H53           11.3999    -5.5880   -10.7962 H       
  54 H54           12.9150    -4.8608   -11.3827 H       
@<TRIPOS>BOND
   1    1    2 ar
   2    1    6 ar
   3    1   31 1
   4    2    3 ar
   5    3    4 ar
   6    3   32 1
   7    4    5 ar
   8    4    7 1
   9    5    6 ar
  10    6   33 1
  11    7    8 1
  12    7   12 1
  13    8    9 1
  14    8   34 1
  15    8   35 1
  16    9   10 1
  17    9   36 1
  18    9   37 1
  19   10   11 1
  20   10   13 am
  21   11   12 1
  22   11   38 1
  23   11   39 1
  24   12   40 1
  25   12   41 1
  26   13   14 1
  27   13   15 2
  28   14   16 ar
  29   14   20 ar
  30   16   17 ar
  31   16   42 1
  32   17   18 ar
  33   17   43 1
  34   18   19 ar
  35   18   24 1
  36   19   20 ar
  37   19   21 1
  38   20   44 1
  39   21   22 3
  40   22   23 1
  41   23   25 ar
  42   23   29 ar
  43   24   45 1
  44   24   46 1
  45   24   47 1
  46   25   26 ar
  47   25   48 1
  48   26   27 ar
  49   26   49 1
  50   27   28 ar
  51   27   50 1
  52   28   29 ar
  53   28   30 1
  54   29   51 1
  55   30   52 1
  56   30   53 1
  57   30   54 1

#	End of record

