#	Name: ASD01911177
#	Creating user name:	WinNT
#	Creation time:	15. 06. 2019 19:57

#	Modifying user name:	WinNT
#	Modification time:	15. 06. 2019 19:57

#	Program:	/corina/corina34_cracker 3.40 0067  02.08.2006

@<TRIPOS>MOLECULE
ASD01911177
  34   35    0    0    0
SMALL
NO_CHARGES


@<TRIPOS>ATOM
   1 N1            -0.0169     1.3965     0.0097 N.2     
   2 N2             0.0021    -0.0041     0.0020 N.pl3   
   3 C3             1.2284     1.8226     0.0001 C.2     
   4 C4             2.0722     0.6950    -0.0140 C.2     
   5 C5             1.2909    -0.4070    -0.0125 C.2     
   6 C6             1.7727    -1.8348    -0.0243 C.3     
   7 C7             1.6660     3.2408     0.0031 C.ar    
   8 C8             0.7204     4.2636     0.0177 C.ar    
   9 C9             1.1317     5.5809     0.0209 C.ar    
  10 C10            2.4827     5.8868     0.0092 C.ar    
  11 C11            3.4266     4.8725    -0.0053 C.ar    
  12 C12            3.0241     3.5529    -0.0028 C.ar    
  13 C13           -1.1724    -0.8798     0.0085 C.3     
  14 C14           -1.5883    -1.1729    -1.4100 C.2     
  15 O15           -2.6485    -1.9605    -1.6494 O.3     
  16 O16           -0.9674    -0.6990    -2.3318 O.2     
  17 C17           -2.9915    -2.1996    -3.0399 C.3     
  18 C18            0.1096     6.6883     0.0367 C.3     
  19 F19            2.8811     7.1777     0.0115 F       
  20 H20            3.1521     0.7089    -0.0249 H       
  21 H21            1.8988    -2.1842     1.0005 H       
  22 H22            1.0407    -2.4611    -0.5342 H       
  23 H23            2.7271    -1.8919    -0.5476 H       
  24 H24           -0.3331     4.0260     0.0261 H       
  25 H25            4.4789     5.1153    -0.0147 H       
  26 H26            3.7605     2.7629    -0.0142 H       
  27 H27           -0.9269    -1.8130     0.5154 H       
  28 H28           -1.9908    -0.3861     0.5325 H       
  29 H29           -3.2156    -1.2507    -3.5272 H       
  30 H30           -2.1517    -2.6776    -3.5442 H       
  31 H31           -3.8646    -2.8500    -3.0921 H       
  32 H32           -0.1270     6.9497     1.0681 H       
  33 H33            0.5123     7.5617    -0.4763 H       
  34 H34           -0.7956     6.3544    -0.4704 H       
@<TRIPOS>BOND
   1    1    2 1
   2    1    3 2
   3    2   13 1
   4    2    5 1
   5    3    4 1
   6    3    7 1
   7    4    5 2
   8    4   20 1
   9    5    6 1
  10    6   21 1
  11    6   22 1
  12    6   23 1
  13    7    8 ar
  14    7   12 ar
  15    8    9 ar
  16    8   24 1
  17    9   10 ar
  18    9   18 1
  19   10   11 ar
  20   10   19 1
  21   11   12 ar
  22   11   25 1
  23   12   26 1
  24   13   14 1
  25   13   27 1
  26   13   28 1
  27   14   15 1
  28   14   16 2
  29   15   17 1
  30   17   29 1
  31   17   30 1
  32   17   31 1
  33   18   32 1
  34   18   33 1
  35   18   34 1

#	End of record

