#	Name: ASD01915630
#	Creating user name:	WinNT
#	Creation time:	15. 06. 2019 20:05

#	Modifying user name:	WinNT
#	Modification time:	15. 06. 2019 20:05

#	Program:	/corina/corina34_cracker 3.40 0067  02.08.2006

@<TRIPOS>MOLECULE
ASD01915630
  44   47    0    0    0
SMALL
NO_CHARGES


@<TRIPOS>ATOM
   1 C1            -0.0042     1.4684     0.2346 C.2     
   2 N2             0.0661     0.1189    -0.0301 N.pl3   
   3 C3            -1.1431    -0.6639    -0.3126 C.3     
   4 C4            -2.3281    -0.0486     0.4299 C.3     
   5 N5            -2.4044     1.3988     0.2638 N.am    
   6 C6            -1.2934     2.1742     0.2859 C.2     
   7 C7             1.2763     1.9057     0.4253 C.2     
   8 C8             2.0758     0.7648     0.2733 C.2     
   9 N9             1.2863    -0.2506     0.0108 N.2     
  10 C10            3.5773     0.7127     0.3905 C.3     
  11 O11            4.0777     2.0185     0.6845 O.3     
  12 C12            5.4235     2.1468     0.8233 C.ar    
  13 O13           -1.3589     3.3874     0.3451 O.2     
  14 C14            5.9776     3.3861     1.1090 C.ar    
  15 C15            6.2451     1.0374     0.6851 C.ar    
  16 C16            7.6128     1.1704     0.8265 C.ar    
  17 C17            8.1631     2.4078     1.1057 C.ar    
  18 C18            7.3460     3.5138     1.2495 C.ar    
  19 C19           -3.6541     2.0003     0.0771 C.ar    
  20 C20           -4.5855     2.0028     1.1072 C.ar    
  21 C21           -1.4204    -0.6503    -1.8172 C.3     
  22 C22           -3.9626     2.6005    -1.1366 C.ar    
  23 C23           -5.1965     3.1936    -1.3187 C.ar    
  24 C24           -6.1256     3.1903    -0.2920 C.ar    
  25 C25           -5.8182     2.5969     0.9209 C.ar    
  26 F26           -7.3319     3.7714    -0.4720 F       
  27 H27           -0.9979    -1.6911     0.0218 H       
  28 H28           -3.2489    -0.4952     0.0550 H       
  29 H29           -2.2353    -0.2768     1.4917 H       
  30 H30            1.6016     2.9119     0.6449 H       
  31 H31            3.8557     0.0281     1.1917 H       
  32 H32            4.0033     0.3636    -0.5501 H       
  33 H33            5.3398     4.2504     1.2211 H       
  34 H34            5.8157     0.0707     0.4674 H       
  35 H35            8.2528     0.3071     0.7194 H       
  36 H36            9.2326     2.5097     1.2159 H       
  37 H37            7.7782     4.4793     1.4672 H       
  38 H38           -4.3461     1.5401     2.0533 H       
  39 H39           -0.5734    -1.0866    -2.3467 H       
  40 H40           -2.3183    -1.2317    -2.0264 H       
  41 H41           -1.5669     0.3772    -2.1503 H       
  42 H42           -3.2379     2.6039    -1.9374 H       
  43 H43           -5.4368     3.6605    -2.2625 H       
  44 H44           -6.5444     2.5952     1.7202 H       
@<TRIPOS>BOND
   1    1    2 1
   2    1    7 2
   3    1    6 1
   4    2    3 1
   5    2    9 1
   6    3    4 1
   7    3   21 1
   8    3   27 1
   9    4    5 1
  10    4   28 1
  11    4   29 1
  12    5    6 am
  13    5   19 1
  14    6   13 2
  15    7    8 1
  16    7   30 1
  17    8    9 2
  18    8   10 1
  19   10   11 1
  20   10   31 1
  21   10   32 1
  22   11   12 1
  23   12   14 ar
  24   12   15 ar
  25   14   18 ar
  26   14   33 1
  27   15   16 ar
  28   15   34 1
  29   16   17 ar
  30   16   35 1
  31   17   18 ar
  32   17   36 1
  33   18   37 1
  34   19   20 ar
  35   19   22 ar
  36   20   25 ar
  37   20   38 1
  38   21   39 1
  39   21   40 1
  40   21   41 1
  41   22   23 ar
  42   22   42 1
  43   23   24 ar
  44   23   43 1
  45   24   25 ar
  46   24   26 1
  47   25   44 1

#	End of record

