#	Name: ASD01813727
#	Creating user name:	WinNT
#	Creation time:	15. 06. 2019 19:31

#	Modifying user name:	WinNT
#	Modification time:	15. 06. 2019 19:31

#	Program:	/corina/corina34_cracker 3.40 0067  02.08.2006

@<TRIPOS>MOLECULE
ASD01813727
  56   60    0    0    0
SMALL
NO_CHARGES


@<TRIPOS>ATOM
   1 C1             0.0579     1.4638     0.0045 C.3     
   2 N2             0.0478    -0.0011    -0.0025 N.pl3   
   3 C3            -0.0359    -0.7804    -1.1227 C.2     
   4 C4            -0.0205    -2.0792    -0.7818 C.2     
   5 C5             0.0816    -2.1384     0.6790 C.ar    
   6 N6             0.1364    -3.1325     1.5533 N.ar    
   7 C7             0.2291    -2.9016     2.8545 C.ar    
   8 C8             0.2722    -1.5972     3.3539 C.ar    
   9 C9             0.2178    -0.5296     2.4784 C.ar    
  10 C10            0.2623     0.8884     2.9866 C.3     
  11 C11            0.2759     0.8817     4.4935 C.ar    
  12 C12           -0.9120     0.9957     5.1935 C.ar    
  13 C13           -0.9066     0.9898     6.5732 C.ar    
  14 C14            0.3007     0.8686     7.2625 C.ar    
  15 C15            1.4954     0.7540     6.5505 C.ar    
  16 C16            1.4756     0.7559     5.1710 C.ar    
  17 C17            0.3140     0.8620     8.7411 C.2     
  18 N18           -0.7352     0.9569     9.5067 N.2     
  19 C19           -0.5318     0.9333    10.8037 C.2     
  20 C20            0.7421     0.8134    11.1920 C.2     
  21 S21            1.7510     0.7170     9.7500 S.3     
  22 C22            0.1269    -0.7959     1.1150 C.ar    
  23 C23            0.2876    -4.0438     3.7946 C.2     
  24 O24            0.3728    -3.8430     4.9902 O.2     
  25 N25            0.2464    -5.3062     3.3246 N.am    
  26 C26            0.3042    -6.4365     4.2549 C.3     
  27 H27            0.9552    -6.1863     5.0926 H       
  28 C28           -1.1034    -6.7452     4.7743 C.3     
  29 C29           -1.0450    -7.9756     5.6833 C.3     
  30 O30           -0.4990    -9.0780     4.9561 O.3     
  31 C31            0.8336    -8.8646     4.4865 C.3     
  32 C32            0.8528    -7.6693     3.5299 C.3     
  33 H33            0.2305    -7.8886     2.6624 H       
  34 O34            2.1937    -7.4164     3.1056 O.3     
  35 H35            1.0875     1.8199     0.0398 H       
  36 H36           -0.4241     1.8348    -0.9000 H       
  37 H37           -0.4822     1.8267     0.8790 H       
  38 H38           -0.1046    -0.4064    -2.1336 H       
  39 H39           -0.0736    -2.9209    -1.4564 H       
  40 H40            0.3472    -1.4247     4.4173 H       
  41 H41            1.1631     1.3786     2.6173 H       
  42 H42           -0.6161     1.4286     2.6336 H       
  43 H43           -1.8456     1.0899     4.6588 H       
  44 H44           -1.8345     1.0792     7.1184 H       
  45 H45            2.4330     0.6601     7.0782 H       
  46 H46            2.3991     0.6628     4.6187 H       
  47 H47           -1.3431     1.0066    11.5129 H       
  48 H48            1.0921     0.7772    12.2131 H       
  49 H49            0.1784    -5.4665     2.3703 H       
  50 H50           -1.4783    -5.8920     5.3397 H       
  51 H51           -1.7664    -6.9453     3.9326 H       
  52 H52           -0.4139    -7.7608     6.5457 H       
  53 H53           -2.0505    -8.2256     6.0217 H       
  54 H54            1.4893    -8.6614     5.3332 H       
  55 H55            1.1814    -9.7550     3.9627 H       
  56 H56            2.6046    -8.1566     2.6382 H       
@<TRIPOS>BOND
   1    1    2 1
   2    1   35 1
   3    1   36 1
   4    1   37 1
   5    2   22 1
   6    2    3 1
   7    3    4 2
   8    3   38 1
   9    4    5 1
  10    4   39 1
  11    5   22 ar
  12    5    6 ar
  13    6    7 ar
  14    7    8 ar
  15    7   23 1
  16    8    9 ar
  17    8   40 1
  18    9   10 1
  19    9   22 ar
  20   10   11 1
  21   10   41 1
  22   10   42 1
  23   11   16 ar
  24   11   12 ar
  25   12   13 ar
  26   12   43 1
  27   13   14 ar
  28   13   44 1
  29   14   15 ar
  30   14   17 1
  31   15   16 ar
  32   15   45 1
  33   16   46 1
  34   17   21 1
  35   17   18 2
  36   18   19 1
  37   19   20 2
  38   19   47 1
  39   20   21 1
  40   20   48 1
  41   23   24 2
  42   23   25 am
  43   25   26 1
  44   25   49 1
  45   26   27 1
  46   26   32 1
  47   26   28 1
  48   28   29 1
  49   28   50 1
  50   28   51 1
  51   29   30 1
  52   29   52 1
  53   29   53 1
  54   30   31 1
  55   31   32 1
  56   31   54 1
  57   31   55 1
  58   32   33 1
  59   32   34 1
  60   34   56 1

#	End of record

