#	Name: ASD01913324
#	Creating user name:	WinNT
#	Creation time:	15. 06. 2019 20:01

#	Modifying user name:	WinNT
#	Modification time:	15. 06. 2019 20:01

#	Program:	/corina/corina34_cracker 3.40 0067  02.08.2006

@<TRIPOS>MOLECULE
ASD01913324
  42   44    0    0    0
SMALL
NO_CHARGES


@<TRIPOS>ATOM
   1 C1            -0.0169     1.3928     0.0097 C.ar    
   2 C2             0.0021    -0.0041     0.0020 C.ar    
   3 C3             1.2387    -0.6635    -0.0134 C.ar    
   4 C4             2.3900     0.1030    -0.0203 C.ar    
   5 C5             2.2856     1.4827    -0.0119 C.ar    
   6 N6             1.1081     2.0773     0.0026 N.ar    
   7 C7             3.5383     2.3205    -0.0189 C.3     
   8 C8            -1.2208    -0.7492     0.0102 C.1     
   9 C9            -2.2233    -1.3601     0.0169 C.1     
  10 C10           -3.4461    -2.1052     0.0251 C.ar    
  11 C11           -3.4170    -3.5023     0.0173 C.ar    
  12 C12           -4.5988    -4.2132     0.0253 C.ar    
  13 C13           -5.8113    -3.5464     0.0404 C.ar    
  14 C14           -5.8479    -2.1632     0.0477 C.ar    
  15 C15           -4.6742    -1.4389     0.0467 C.ar    
  16 N16            3.8647     2.6994    -1.3959 N.am    
  17 C17            3.3188     3.9410    -1.9464 C.3     
  18 C18            3.1557     3.7898    -3.4626 C.3     
  19 C19            4.5088     3.3911    -4.0614 C.3     
  20 N20            4.9900     2.1793    -3.3961 N.am    
  21 C21            4.6621     1.9043    -2.1247 C.2     
  22 O22            5.0975     0.8895    -1.6159 O.2     
  23 C23            5.8514     1.2505    -4.1320 C.3     
  24 H24           -0.9619     1.9156     0.0170 H       
  25 H25            1.2913    -1.7422    -0.0193 H       
  26 H26            3.3606    -0.3705    -0.0318 H       
  27 H27            3.3779     3.2190     0.5769 H       
  28 H28            4.3620     1.7459     0.4048 H       
  29 H29           -2.4715    -4.0240     0.0048 H       
  30 H30           -4.5779    -5.2930     0.0193 H       
  31 H31           -6.7335    -4.1084     0.0462 H       
  32 H32           -6.7979    -1.6495     0.0592 H       
  33 H33           -4.7042    -0.3593     0.0528 H       
  34 H34            2.3481     4.1443    -1.4941 H       
  35 H35            4.0005     4.7645    -1.7337 H       
  36 H36            2.4186     3.0158    -3.6761 H       
  37 H37            2.8304     4.7374    -3.8921 H       
  38 H38            4.3927     3.1993    -5.1281 H       
  39 H39            5.2257     4.1983    -3.9113 H       
  40 H40            6.8949     1.5299    -3.9864 H       
  41 H41            5.6918     0.2372    -3.7633 H       
  42 H42            5.6086     1.2934    -5.1937 H       
@<TRIPOS>BOND
   1    1    2 ar
   2    1    6 ar
   3    1   24 1
   4    2    3 ar
   5    2    8 1
   6    3    4 ar
   7    3   25 1
   8    4    5 ar
   9    4   26 1
  10    5    6 ar
  11    5    7 1
  12    7   16 1
  13    7   27 1
  14    7   28 1
  15    8    9 3
  16    9   10 1
  17   10   11 ar
  18   10   15 ar
  19   11   12 ar
  20   11   29 1
  21   12   13 ar
  22   12   30 1
  23   13   14 ar
  24   13   31 1
  25   14   15 ar
  26   14   32 1
  27   15   33 1
  28   16   17 1
  29   16   21 am
  30   17   18 1
  31   17   34 1
  32   17   35 1
  33   18   19 1
  34   18   36 1
  35   18   37 1
  36   19   20 1
  37   19   38 1
  38   19   39 1
  39   20   21 am
  40   20   23 1
  41   21   22 2
  42   23   40 1
  43   23   41 1
  44   23   42 1

#	End of record

