#	Name: ASD01440006
#	Creating user name:	WinNT
#	Creation time:	15. 06. 2019 19:20

#	Modifying user name:	WinNT
#	Modification time:	15. 06. 2019 19:20

#	Program:	/corina/corina34_cracker 3.40 0067  02.08.2006

@<TRIPOS>MOLECULE
ASD01440006
  40   41    0    0    0
SMALL
NO_CHARGES


@<TRIPOS>ATOM
   1 C1            -0.0178     1.4648     0.0101 C.3     
   2 N2             0.0021    -0.0041     0.0020 N.3     
   3 C3             0.7062    -0.5275     1.1802 C.3     
   4 C4             2.1851    -0.1430     1.1032 C.3     
   5 C5             2.9074    -0.6800     2.3119 C.ar    
   6 C6             3.4716    -1.9412     2.2755 C.ar    
   7 C7             4.1349    -2.4348     3.3835 C.ar    
   8 C8             4.2342    -1.6665     4.5292 C.ar    
   9 C9             3.6689    -0.4028     4.5656 C.ar    
  10 C10            3.0102     0.0915     3.4545 C.ar    
  11 Cl11           3.7926     0.5629     6.0029 Cl      
  12 Cl12           5.0665    -2.2861     5.9210 Cl      
  13 C13           -1.3597    -0.5486    -0.0825 C.3     
  14 C14           -1.9710    -0.1854    -1.4372 C.3     
  15 O15           -1.2392    -0.8339    -2.4793 O.3     
  16 C16           -1.6557    -0.6147    -3.7544 C.ar    
  17 C17           -0.9908    -1.2131    -4.8145 C.ar    
  18 C18           -1.4152    -0.9894    -6.1103 C.ar    
  19 C19           -2.5023    -0.1689    -6.3514 C.ar    
  20 C20           -3.1679     0.4297    -5.2945 C.ar    
  21 C21           -2.7498     0.2031    -3.9966 C.ar    
  22 Cl22          -4.5321     1.4591    -5.5995 Cl      
  23 Cl23          -3.0328     0.1113    -7.9804 Cl      
  24 H24            1.0047     1.8421     0.0024 H       
  25 H25           -0.5450     1.8259    -0.8730 H       
  26 H26           -0.5280     1.8163     0.9069 H       
  27 H27            0.2673    -0.1040     2.0837 H       
  28 H28            0.6139    -1.6133     1.2060 H       
  29 H29            2.6240    -0.5665     0.1998 H       
  30 H30            2.2773     0.9428     1.0774 H       
  31 H31            3.3940    -2.5416     1.3812 H       
  32 H32            4.5752    -3.4206     3.3546 H       
  33 H33            2.5691     1.0769     3.4822 H       
  34 H34           -1.3244    -1.6331     0.0212 H       
  35 H35           -1.9698    -0.1268     0.7163 H       
  36 H36           -3.0106    -0.5117    -1.4659 H       
  37 H37           -1.9251     0.8944    -1.5788 H       
  38 H38           -0.1415    -1.8533    -4.6272 H       
  39 H39           -0.8974    -1.4554    -6.9357 H       
  40 H40           -3.2689     0.6695    -3.1723 H       
@<TRIPOS>BOND
   1    1    2 1
   2    1   24 1
   3    1   25 1
   4    1   26 1
   5    2    3 1
   6    2   13 1
   7    3    4 1
   8    3   27 1
   9    3   28 1
  10    4    5 1
  11    4   29 1
  12    4   30 1
  13    5    6 ar
  14    5   10 ar
  15    6    7 ar
  16    6   31 1
  17    7    8 ar
  18    7   32 1
  19    8    9 ar
  20    8   12 1
  21    9   10 ar
  22    9   11 1
  23   10   33 1
  24   13   14 1
  25   13   34 1
  26   13   35 1
  27   14   15 1
  28   14   36 1
  29   14   37 1
  30   15   16 1
  31   16   17 ar
  32   16   21 ar
  33   17   18 ar
  34   17   38 1
  35   18   19 ar
  36   18   39 1
  37   19   20 ar
  38   19   23 1
  39   20   21 ar
  40   20   22 1
  41   21   40 1

#	End of record

