#	Name: ASD03082340
#	Creating user name:	WinNT
#	Creation time:	15. 06. 2019 20:27

#	Modifying user name:	WinNT
#	Modification time:	15. 06. 2019 20:27

#	Program:	/corina/corina34_cracker 3.40 0067  02.08.2006

@<TRIPOS>MOLECULE
ASD03082340
  35   37    0    0    0
SMALL
NO_CHARGES


@<TRIPOS>ATOM
   1 C1             1.1007    -0.4709     0.6970 C.ar    
   2 C2             0.0014    -0.0032    -0.0098 C.ar    
   3 C3             0.0942     1.1761    -0.7371 C.ar    
   4 C4             1.2834     1.8848    -0.7568 C.ar    
   5 C5             2.3850     1.4128    -0.0464 C.ar    
   6 C6             2.2883     0.2360     0.6777 C.ar    
   7 O7             1.6319     3.0484    -1.3798 O.3     
   8 C8             2.8277     3.4974    -0.7153 C.3     
   9 O9             3.4237     2.2818    -0.2250 O.3     
  10 F10            3.6835     4.1341    -1.6204 F       
  11 F11            2.5091     4.3514     0.3460 F       
  12 N12           -1.2012    -0.7209     0.0102 N.am    
  13 C13           -2.3741    -0.0674     0.1271 C.2     
  14 N14           -3.5354    -0.7451     0.0339 N.am    
  15 S15           -2.3890     1.6236     0.3940 S.2     
  16 C16           -4.7083    -0.0916     0.1508 C.2     
  17 C17           -5.9842    -0.8363     0.0484 C.ar    
  18 O18           -4.7188     1.1083     0.3402 O.2     
  19 C19           -7.2122    -0.1775     0.1668 C.ar    
  20 C20           -8.3786    -0.9105     0.0650 C.ar    
  21 N21           -8.3448    -2.2122    -0.1402 N.ar    
  22 C22           -7.2090    -2.8728    -0.2578 C.ar    
  23 C23           -5.9945    -2.2164    -0.1751 C.ar    
  24 Cl24          -7.2394    -4.5875    -0.5273 Cl      
  25 C25           -9.7082    -0.2124     0.1908 C.3     
  26 H26            1.0267    -1.3858     1.2661 H       
  27 H27           -0.7608     1.5401    -1.2873 H       
  28 H28            3.1422    -0.1296     1.2287 H       
  29 H29           -1.1899    -1.6883    -0.0601 H       
  30 H30           -3.5270    -1.7032    -0.1174 H       
  31 H31           -7.2481     0.8886     0.3358 H       
  32 H32           -5.0682    -2.7630    -0.2726 H       
  33 H33          -10.0407     0.1160    -0.7939 H       
  34 H34          -10.4415    -0.9006     0.6112 H       
  35 H35           -9.6040     0.6523     0.8462 H       
@<TRIPOS>BOND
   1    1    2 ar
   2    1    6 ar
   3    1   26 1
   4    2    3 ar
   5    2   12 1
   6    3    4 ar
   7    3   27 1
   8    4    5 ar
   9    4    7 1
  10    5    6 ar
  11    5    9 1
  12    6   28 1
  13    7    8 1
  14    8    9 1
  15    8   10 1
  16    8   11 1
  17   12   13 am
  18   12   29 1
  19   13   14 am
  20   13   15 2
  21   14   16 am
  22   14   30 1
  23   16   17 1
  24   16   18 2
  25   17   19 ar
  26   17   23 ar
  27   19   20 ar
  28   19   31 1
  29   20   21 ar
  30   20   25 1
  31   21   22 ar
  32   22   23 ar
  33   22   24 1
  34   23   32 1
  35   25   33 1
  36   25   34 1
  37   25   35 1

#	End of record

