#	Name: ASD01916410
#	Creating user name:	WinNT
#	Creation time:	15. 06. 2019 20:07

#	Modifying user name:	WinNT
#	Modification time:	15. 06. 2019 20:07

#	Program:	/corina/corina34_cracker 3.40 0067  02.08.2006

@<TRIPOS>MOLECULE
ASD01916410
  36   38    0    0    0
SMALL
NO_CHARGES


@<TRIPOS>ATOM
   1 N1            -0.0157     1.3095     0.0092 N.ar    
   2 C2             0.0021    -0.0041     0.0020 C.ar    
   3 C3             1.2117    -0.7009    -0.0133 C.ar    
   4 N4             2.3569    -0.0573    -0.0203 N.ar    
   5 C5             2.3658     1.2801    -0.0132 C.ar    
   6 C6             3.5744     1.9971    -0.0198 C.ar    
   7 C7             3.5520     3.3593    -0.0119 C.ar    
   8 C8             2.3402     4.0574     0.0033 C.ar    
   9 C9             1.1506     3.3934     0.0101 C.ar    
  10 C10            1.1367     1.9882     0.0019 C.ar    
  11 C11           -1.2975    -0.7671     0.0108 C.3     
  12 C12           -2.1444    -0.3182     1.2034 C.3     
  13 C13           -3.4137    -1.0634     1.2120 C.1     
  14 C14           -4.4261    -1.6578     1.2189 C.1     
  15 C15           -5.6610    -2.3829     1.2273 C.ar    
  16 C16           -6.5999    -2.1395     2.2304 C.ar    
  17 C17           -7.7881    -2.8482     2.2246 C.ar    
  18 C18           -8.0006    -3.7781     1.2161 C.ar    
  19 C19           -7.0272    -3.9692     0.2530 C.ar    
  20 N20           -5.9060    -3.2778     0.2772 N.ar    
  21 C21           -7.2543    -4.9783    -0.8430 C.3     
  22 F22           -7.8794    -4.3552    -1.9284 F       
  23 F23            2.3494     5.4083     0.0117 F       
  24 F24            4.7161     4.0450    -0.0183 F       
  25 H25            1.2060    -1.7809    -0.0191 H       
  26 H26            4.5172     1.4704    -0.0308 H       
  27 H27            0.2220     3.9447     0.0222 H       
  28 H28           -1.8399    -0.5715    -0.9142 H       
  29 H29           -1.0916    -1.8343     0.0926 H       
  30 H30           -1.6019    -0.5137     2.1284 H       
  31 H31           -2.3502     0.7491     1.1216 H       
  32 H32           -6.4018    -1.4087     3.0004 H       
  33 H33           -8.5337    -2.6818     2.9881 H       
  34 H34           -8.9178    -4.3474     1.1844 H       
  35 H35           -6.2968    -5.3897    -1.1623 H       
  36 H36           -7.8892    -5.7824    -0.4707 H       
@<TRIPOS>BOND
   1    1    2 ar
   2    1   10 ar
   3    2    3 ar
   4    2   11 1
   5    3    4 ar
   6    3   25 1
   7    4    5 ar
   8    5    6 ar
   9    5   10 ar
  10    6    7 ar
  11    6   26 1
  12    7    8 ar
  13    7   24 1
  14    8    9 ar
  15    8   23 1
  16    9   10 ar
  17    9   27 1
  18   11   12 1
  19   11   28 1
  20   11   29 1
  21   12   13 1
  22   12   30 1
  23   12   31 1
  24   13   14 3
  25   14   15 1
  26   15   16 ar
  27   15   20 ar
  28   16   17 ar
  29   16   32 1
  30   17   18 ar
  31   17   33 1
  32   18   19 ar
  33   18   34 1
  34   19   20 ar
  35   19   21 1
  36   21   22 1
  37   21   35 1
  38   21   36 1

#	End of record

