#	Name: ASD00111038
#	Creating user name:	WinNT
#	Creation time:	15. 06. 2019 18:30

#	Modifying user name:	WinNT
#	Modification time:	15. 06. 2019 18:30

#	Program:	/corina/corina34_cracker 3.40 0067  02.08.2006

@<TRIPOS>MOLECULE
ASD00111038
  31   32    0    0    0
SMALL
NO_CHARGES


@<TRIPOS>ATOM
   1 C1            -0.0167     1.3829     0.0096 C.ar    
   2 C2             0.0021    -0.0041     0.0020 C.ar    
   3 C3             1.2143    -0.6810    -0.0127 C.ar    
   4 C4             2.3954     0.0357    -0.0196 C.ar    
   5 C5             2.3742     1.4095    -0.0124 C.ar    
   6 C6             1.1709     2.0907     0.0021 C.ar    
   7 C7             3.7203    -0.6984    -0.0342 C.3     
   8 C8             4.3768    -0.4789    -1.4008 C.3     
   9 N9             5.1201     0.7703    -1.4231 N.3     
  10 C10            4.3384     1.9955    -1.3899 C.3     
  11 C11            3.6764     2.1835    -0.0206 C.3     
  12 C12            3.3952     3.6686     0.2168 C.3     
  13 O13           -1.1652    -0.7000     0.0094 O.3     
  14 C14           -2.3743     0.0615     0.0251 C.3     
  15 F15           -2.4284     0.8742    -1.1124 F       
  16 F16           -3.4718    -0.8062     0.0309 F       
  17 F17           -2.4066     0.8619     1.1720 F       
  18 H18           -0.9593     1.9100     0.0170 H       
  19 H19            1.2338    -1.7608    -0.0184 H       
  20 H20            1.1589     3.1707     0.0081 H       
  21 H21            4.3664    -0.3060     0.7511 H       
  22 H22            3.5520    -1.7634     0.1257 H       
  23 H23            5.0573    -1.3047    -1.6084 H       
  24 H24            3.6043    -0.4501    -2.1692 H       
  25 H25            5.8353     0.7783    -0.7114 H       
  26 H26            4.9928     2.8438    -1.5911 H       
  27 H27            3.5665     1.9492    -2.1581 H       
  28 H28            4.3347     1.8041     0.7609 H       
  29 H29            2.7286     4.0410    -0.5610 H       
  30 H30            2.9245     3.7979     1.1914 H       
  31 H31            4.3322     4.2247     0.1892 H       
@<TRIPOS>BOND
   1    1    2 ar
   2    1    6 ar
   3    1   18 1
   4    2    3 ar
   5    2   13 1
   6    3    4 ar
   7    3   19 1
   8    4    5 ar
   9    4    7 1
  10    5    6 ar
  11    5   11 1
  12    6   20 1
  13    7    8 1
  14    7   21 1
  15    7   22 1
  16    8    9 1
  17    8   23 1
  18    8   24 1
  19    9   10 1
  20    9   25 1
  21   10   11 1
  22   10   26 1
  23   10   27 1
  24   11   12 1
  25   11   28 1
  26   12   29 1
  27   12   30 1
  28   12   31 1
  29   13   14 1
  30   14   15 1
  31   14   16 1
  32   14   17 1

#	End of record

