#	Name: ASD05430165
#	Creating user name:	WinNT
#	Creation time:	15. 06. 2019 20:59

#	Modifying user name:	WinNT
#	Modification time:	15. 06. 2019 20:59

#	Program:	/corina/corina34_cracker 3.40 0067  02.08.2006

@<TRIPOS>MOLECULE
ASD05430165
  76   82    0    0    0
SMALL
NO_CHARGES


@<TRIPOS>ATOM
   1 C1             0.0142     1.2591     0.1899 C.ar    
   2 C2             0.0321    -0.0170    -0.3242 C.ar    
   3 C3             1.2368    -0.5918    -0.7238 C.ar    
   4 C4             2.3961     0.1403    -0.5935 C.ar    
   5 C5             2.3705     1.4345    -0.0836 C.ar    
   6 C6             1.1531     2.0398     0.3181 C.ar    
   7 O7             4.8676     0.1720    -0.0205 O.3     
   8 C8             4.8103     1.5357     0.0226 C.2     
   9 C9             3.6286     2.1877     0.0413 C.2     
  10 C10            6.0893    -0.4617     0.3353 C.3     
  11 C11            6.9005     0.3522     1.3402 C.3     
  12 N12            7.1170     1.6952     0.8007 N.pl3   
  13 C13            6.0929     2.2698     0.0485 C.2     
  14 N14           -1.1622    -0.7394    -0.4457 N.pl3   
  15 C15           -1.4325    -1.9660     0.1040 C.2     
  16 C16           -2.6879    -2.2888    -0.2607 C.2     
  17 N17           -3.1755    -1.2907    -1.0124 N.2     
  18 C18           -2.2734    -0.3541    -1.1257 C.2     
  19 C19           -3.4186    -3.5533     0.1111 C.3     
  20 C20            8.3434     2.4524     1.0359 C.3     
  21 C21            8.6574     3.2685    -0.2230 C.3     
  22 O22            7.5213     4.0385    -0.6026 O.3     
  23 N23            6.2794     3.3714    -0.5968 N.2     
  24 C24            8.1499     3.3806     2.2072 C.ar    
  25 C25            9.1843     4.2016     2.6161 C.ar    
  26 C26            6.9364     3.4145     2.8685 C.ar    
  27 C27            6.7575     4.2660     3.9422 C.ar    
  28 C28            7.7944     5.0849     4.3559 C.ar    
  29 C29            9.0079     5.0536     3.6898 C.ar    
  30 F30            7.6206     5.9177     5.4054 F       
  31 C31           -0.2947     3.6849     1.6627 C.3     
  32 Si32          -1.3755     2.3408     0.8748 Si      
  33 C33            9.4961     1.4890     1.3261 C.3     
  34 O34           10.6935     2.2342     1.5555 O.3     
  35 C35            0.9949     3.4454     0.8390 C.3     
  36 C36           -2.4481     3.0282    -0.4845 C.3     
  37 C37           -2.3872     1.4350     2.1503 C.3     
  38 C38            5.8058    -1.8641     0.9108 C.3     
  39 C39            6.5124    -2.8214    -0.0755 C.3     
  40 O40            7.5422    -2.0194    -0.6945 O.3     
  41 C41            6.9344    -0.7290    -0.9254 C.3     
  42 H42            1.2612    -1.5931    -1.1278 H       
  43 H43            3.3381    -0.2963    -0.8910 H       
  44 H44            3.6063     3.2622     0.1479 H       
  45 H45            6.3535     0.4206     2.2805 H       
  46 H46            7.8621    -0.1320     1.5102 H       
  47 H47           -0.7661    -2.5596     0.7123 H       
  48 H48           -2.3884     0.5689    -1.6745 H       
  49 H49           -3.9581    -3.3998     1.0457 H       
  50 H50           -4.1250    -3.8101    -0.6783 H       
  51 H51           -2.7011    -4.3645     0.2347 H       
  52 H52            9.4955     3.9358    -0.0215 H       
  53 H53            8.9235     2.5921    -1.0353 H       
  54 H54           10.1307     4.1770     2.0964 H       
  55 H55            6.1277     2.7756     2.5456 H       
  56 H56            5.8091     4.2928     4.4582 H       
  57 H57            9.8175     5.6917     4.0118 H       
  58 H58           -0.7023     4.6809     1.4892 H       
  59 H59           -0.1339     3.4997     2.7247 H       
  60 H60            9.2611     0.8974     2.2109 H       
  61 H61            9.6387     0.8257     0.4729 H       
  62 H62           11.4673     1.6865     1.7462 H       
  63 H63            1.8542     3.6797     1.4673 H       
  64 H64            0.9960     4.1302    -0.0090 H       
  65 H65           -1.8175     3.4605    -1.2614 H       
  66 H66           -3.0522     2.2273    -0.9107 H       
  67 H67           -3.1021     3.7989    -0.0766 H       
  68 H68           -3.0998     2.1234     2.6046 H       
  69 H69           -2.9263     0.6170     1.6725 H       
  70 H70           -1.7274     1.0347     2.9201 H       
  71 H71            6.2321    -1.9609     1.9093 H       
  72 H72            4.7336    -2.0593     0.9312 H       
  73 H73            6.9559    -3.6599     0.4615 H       
  74 H74            5.8083    -3.1802    -0.8262 H       
  75 H75            6.2975    -0.7621    -1.8094 H       
  76 H76            7.7015     0.0373    -1.0377 H       
@<TRIPOS>BOND
   1    1    2 ar
   2    1    6 ar
   3    1   32 1
   4    2    3 ar
   5    2   14 1
   6    3    4 ar
   7    3   42 1
   8    4    5 ar
   9    4   43 1
  10    5    6 ar
  11    5    9 1
  12    6   35 1
  13    7    8 1
  14    7   10 1
  15    8    9 2
  16    8   13 1
  17    9   44 1
  18   10   11 1
  19   10   38 1
  20   10   41 1
  21   11   12 1
  22   11   45 1
  23   11   46 1
  24   12   13 1
  25   12   20 1
  26   13   23 2
  27   14   15 1
  28   14   18 1
  29   15   16 2
  30   15   47 1
  31   16   17 1
  32   16   19 1
  33   17   18 2
  34   18   48 1
  35   19   49 1
  36   19   50 1
  37   19   51 1
  38   20   21 1
  39   20   24 1
  40   20   33 1
  41   21   22 1
  42   21   52 1
  43   21   53 1
  44   22   23 1
  45   24   25 ar
  46   24   26 ar
  47   25   29 ar
  48   25   54 1
  49   26   27 ar
  50   26   55 1
  51   27   28 ar
  52   27   56 1
  53   28   29 ar
  54   28   30 1
  55   29   57 1
  56   31   32 1
  57   31   35 1
  58   31   58 1
  59   31   59 1
  60   32   36 1
  61   32   37 1
  62   33   34 1
  63   33   60 1
  64   33   61 1
  65   34   62 1
  66   35   63 1
  67   35   64 1
  68   36   65 1
  69   36   66 1
  70   36   67 1
  71   37   68 1
  72   37   69 1
  73   37   70 1
  74   38   39 1
  75   38   71 1
  76   38   72 1
  77   39   40 1
  78   39   73 1
  79   39   74 1
  80   40   41 1
  81   41   75 1
  82   41   76 1

#	End of record

