#	Name: ASD01940196
#	Creating user name:	WinNT
#	Creation time:	15. 06. 2019 20:12

#	Modifying user name:	WinNT
#	Modification time:	15. 06. 2019 20:12

#	Program:	/corina/corina34_cracker 3.40 0067  02.08.2006

@<TRIPOS>MOLECULE
ASD01940196
  43   44    0    0    0
SMALL
NO_CHARGES


@<TRIPOS>ATOM
   1 Br1            2.7856    -4.3927    -1.5830 Br      
   2 F2             1.9036     1.5948     2.2854 F       
   3 C3             1.0649     2.1487     1.3826 C.ar    
   4 C4             1.3889     2.1336     0.0324 C.ar    
   5 C5             0.5202     2.7060    -0.8953 C.ar    
   6 C6            -0.6634     3.2876    -0.4660 C.ar    
   7 C7            -0.9806     3.3001     0.8798 C.ar    
   8 C8            -0.1222     2.7272     1.8026 C.ar    
   9 N9             2.5865     1.5449    -0.3963 N.pl3   
  10 N10            0.8423     2.6941    -2.2590 N.am    
  11 C11            2.6331     0.1742    -0.6704 C.ar    
  12 C12            1.4780    -0.5913    -0.5878 C.ar    
  13 C13            1.5267    -1.9453    -0.8591 C.ar    
  14 C14            2.7247    -2.5393    -1.2129 C.ar    
  15 C15            3.8791    -1.7802    -1.2961 C.ar    
  16 C16            3.8361    -0.4241    -1.0321 C.ar    
  17 F17            4.9627     0.3171    -1.1136 F       
  18 F18           -0.4399     2.7369     3.1157 F       
  19 S19            0.4257     3.9772    -3.2195 S.o2    
  20 O20            0.9903     3.6650    -4.4856 O.2     
  21 O21           -0.9805     4.0968    -3.0538 O.2     
  22 C22           -0.3267     7.0922    -3.0157 C.3     
  23 C23           -0.5248     8.3470    -3.8685 C.3     
  24 C24            1.2773     5.3952    -2.4749 C.3     
  25 O25            0.9880     6.5742    -3.2287 O.3     
  26 O26           -0.4769     7.9948    -5.2525 O.3     
  27 C27           -0.6521     9.1009    -6.1402 C.3     
  28 H28           -1.3376     3.7315    -1.1835 H       
  29 H29           -1.9026     3.7543     1.2115 H       
  30 H30            3.3830     2.0881    -0.5029 H       
  31 H31            1.3093     1.9342    -2.6405 H       
  32 H32            0.5419    -0.1289    -0.3114 H       
  33 H33            0.6281    -2.5408    -0.7944 H       
  34 H34            4.8131    -2.2469    -1.5722 H       
  35 H35           -0.4514     7.3450    -1.9628 H       
  36 H36           -1.0636     6.3406    -3.2987 H       
  37 H37           -1.4931     8.7923    -3.6402 H       
  38 H38            0.2659     9.0643    -3.6485 H       
  39 H39            0.9346     5.5269    -1.4486 H       
  40 H40            2.3525     5.2163    -2.4787 H       
  41 H41            0.1359     9.8338    -5.9674 H       
  42 H42           -0.6029     8.7507    -7.1712 H       
  43 H43           -1.6231     9.5618    -5.9590 H       
@<TRIPOS>BOND
   1    1   14 1
   2    2    3 1
   3    3    4 ar
   4    3    8 ar
   5    4    5 ar
   6    4    9 1
   7    5    6 ar
   8    5   10 1
   9    6    7 ar
  10    6   28 1
  11    7    8 ar
  12    7   29 1
  13    8   18 1
  14    9   11 1
  15    9   30 1
  16   10   19 am
  17   10   31 1
  18   11   12 ar
  19   11   16 ar
  20   12   13 ar
  21   12   32 1
  22   13   14 ar
  23   13   33 1
  24   14   15 ar
  25   15   16 ar
  26   15   34 1
  27   16   17 1
  28   19   20 2
  29   19   21 2
  30   19   24 1
  31   22   25 1
  32   22   23 1
  33   22   35 1
  34   22   36 1
  35   23   26 1
  36   23   37 1
  37   23   38 1
  38   24   25 1
  39   24   39 1
  40   24   40 1
  41   26   27 1
  42   27   41 1
  43   27   42 1
  44   27   43 1

#	End of record

