#	Name: ASD01209293
#	Creating user name:	WinNT
#	Creation time:	15. 06. 2019 19:11

#	Modifying user name:	WinNT
#	Modification time:	15. 06. 2019 19:11

#	Program:	/corina/corina34_cracker 3.40 0067  02.08.2006

@<TRIPOS>MOLECULE
ASD01209293
  63   65    0    0    0
SMALL
NO_CHARGES


@<TRIPOS>ATOM
   1 C1            -0.0929     1.4883     0.4483 C.3     
   2 C2            -0.3879     0.0876     0.9194 C.ar    
   3 C3            -1.0769    -0.7867     0.0997 C.ar    
   4 C4            -1.3475    -2.0715     0.5318 C.ar    
   5 C5            -0.9287    -2.4824     1.7835 C.ar    
   6 C6            -0.2388    -1.6084     2.6028 C.ar    
   7 C7             0.0355    -0.3249     2.1690 C.ar    
   8 S8            -1.2746    -4.1198     2.3348 S.o2    
   9 O9            -1.2934    -4.0158     3.7518 O.2     
  10 O10           -2.4394    -4.4941     1.6121 O.2     
  11 C11            0.1547    -5.0932     1.7870 C.3     
  12 C12            1.3980     1.7065     0.4235 C.2     
  13 O13            2.1422     0.8596     0.8703 O.2     
  14 N14            1.9042     2.8427    -0.0953 N.am    
  15 C15            3.2795     3.0694    -0.0677 C.ar    
  16 P16            8.0790     3.6088    -1.6757 P.3     
  17 O17            7.7068     2.3122    -2.2846 O.2     
  18 O18            9.6831     3.7402    -1.6315 O.3     
  19 O19            7.4662     4.8102    -2.5550 O.3     
  20 C20            7.7120     4.9537    -3.9554 C.3     
  21 C21           -0.7398     2.4942     1.4026 C.3     
  22 C22           -2.2606     2.3319     1.3605 C.3     
  23 C23           -2.9152     3.2182     2.4346 C.3     
  24 C24           -3.8353     4.2070     1.6893 C.3     
  25 C25           -4.1512     3.4961     0.3499 C.3     
  26 C26           -2.8058     2.8130    -0.0001 C.3     
  27 C27            4.1596     2.0017     0.0825 C.ar    
  28 C28           10.5074     3.6044    -2.7909 C.3     
  29 N29            5.4610     2.2202     0.1077 N.ar    
  30 C30            5.9285     3.4514    -0.0095 C.ar    
  31 C31            5.0570     4.5143    -0.1583 C.ar    
  32 N32            3.7526     4.3024    -0.1899 N.ar    
  33 C33            7.4151     3.6968     0.0198 C.3     
  34 H34           -0.4972     1.6271    -0.5544 H       
  35 H35           -1.4041    -0.4657    -0.8783 H       
  36 H36           -1.8864    -2.7543    -0.1083 H       
  37 H37            0.0881    -1.9293     3.5809 H       
  38 H38            0.5745     0.3578     2.8091 H       
  39 H39            1.0617    -4.6941     2.2410 H       
  40 H40            0.0240    -6.1323     2.0892 H       
  41 H41            0.2373    -5.0382     0.7015 H       
  42 H42            1.3117     3.5028    -0.4878 H       
  43 H43            8.7830     5.0619    -4.1271 H       
  44 H44            7.3473     4.0709    -4.4806 H       
  45 H45            7.1933     5.8375    -4.3267 H       
  46 H46           -0.3831     2.3139     2.4167 H       
  47 H47           -0.4738     3.5065     1.0985 H       
  48 H48           -2.5291     1.2882     1.5232 H       
  49 H49           -3.5021     2.6047     3.1181 H       
  50 H50           -2.1494     3.7639     2.9859 H       
  51 H51           -4.7508     4.3773     2.2559 H       
  52 H52           -3.3167     5.1485     1.5084 H       
  53 H53           -4.9382     2.7538     0.4828 H       
  54 H54           -4.4274     4.2206    -0.4162 H       
  55 H55           -2.1209     3.5294    -0.4538 H       
  56 H56           -2.9699     1.9661    -0.6663 H       
  57 H57            3.7782     0.9959     0.1785 H       
  58 H58           10.3665     2.6136    -3.2228 H       
  59 H59           10.2315     4.3627    -3.5236 H       
  60 H60           11.5528     3.7332    -2.5105 H       
  61 H61            5.4426     5.5187    -0.2530 H       
  62 H62            7.8964     2.9391     0.6382 H       
  63 H63            7.6122     4.6846     0.4363 H       
@<TRIPOS>BOND
   1    1    2 1
   2    1   12 1
   3    1   21 1
   4    1   34 1
   5    2    3 ar
   6    2    7 ar
   7    3    4 ar
   8    3   35 1
   9    4    5 ar
  10    4   36 1
  11    5    6 ar
  12    5    8 1
  13    6    7 ar
  14    6   37 1
  15    7   38 1
  16    8    9 2
  17    8   10 2
  18    8   11 1
  19   11   39 1
  20   11   40 1
  21   11   41 1
  22   12   13 2
  23   12   14 am
  24   14   15 1
  25   14   42 1
  26   15   27 ar
  27   15   32 ar
  28   16   17 2
  29   16   18 1
  30   16   19 1
  31   16   33 1
  32   18   28 1
  33   19   20 1
  34   20   43 1
  35   20   44 1
  36   20   45 1
  37   21   22 1
  38   21   46 1
  39   21   47 1
  40   22   23 1
  41   22   26 1
  42   22   48 1
  43   23   24 1
  44   23   49 1
  45   23   50 1
  46   24   25 1
  47   24   51 1
  48   24   52 1
  49   25   26 1
  50   25   53 1
  51   25   54 1
  52   26   55 1
  53   26   56 1
  54   27   29 ar
  55   27   57 1
  56   28   58 1
  57   28   59 1
  58   28   60 1
  59   29   30 ar
  60   30   31 ar
  61   30   33 1
  62   31   32 ar
  63   31   61 1
  64   33   62 1
  65   33   63 1

#	End of record

