#	Name: ASD04590495
#	Creating user name:	WinNT
#	Creation time:	15. 06. 2019 20:50

#	Modifying user name:	WinNT
#	Modification time:	15. 06. 2019 20:50

#	Program:	/corina/corina34_cracker 3.40 0067  02.08.2006

@<TRIPOS>MOLECULE
ASD04590495
  73   77    0    0    0
SMALL
NO_CHARGES


@<TRIPOS>ATOM
   1 C1            -0.0167     1.3834     0.0096 C.ar    
   2 C2             0.0021    -0.0041     0.0020 C.ar    
   3 C3             2.3948     0.0191    -0.0202 C.ar    
   4 C4             2.3756     1.4249    -0.0129 C.ar    
   5 C5             1.1624     2.0987     0.0022 C.ar    
   6 N6             3.6952    -0.3636    -0.0355 N.2     
   7 C7             4.4664     0.6966    -0.0381 C.2     
   8 N8             3.6970     1.8290    -0.0245 N.pl3   
   9 C9             5.9437     0.6731    -0.0530 C.2     
  10 C10            6.7565    -0.4839    -0.0671 C.2     
  11 C11            8.0502    -0.0800    -0.0779 C.2     
  12 N12            8.0625     1.2788    -0.0709 N.pl3   
  13 N13            6.7358     1.7272    -0.0611 N.2     
  14 N14            6.3041    -1.8139    -0.0692 N.am    
  15 C15            7.1920    -2.8277    -0.0834 C.2     
  16 O16            8.3818    -2.5918    -0.0944 O.2     
  17 C17            1.1863    -0.6848    -0.0125 C.ar    
  18 C18            6.7067    -4.2544    -0.0856 C.3     
  19 C19            7.9080    -5.2018    -0.1027 C.3     
  20 C20           -1.2971    -0.7677     0.0103 C.3     
  21 N21           -1.7325    -1.0083    -1.3719 N.3     
  22 C22           -2.8622    -1.9482    -1.4124 C.3     
  23 C23           -0.6185    -1.4969    -2.1976 C.3     
  24 C24           -1.1001    -1.6771    -3.6397 C.3     
  25 O25           -2.2178    -2.5691    -3.6558 O.3     
  26 C26           -3.3212    -2.1239    -2.8623 C.3     
  27 C27            7.4152    -6.6502    -0.1049 C.3     
  28 C28            6.5810    -6.9071     1.1517 C.3     
  29 C29            5.3797    -5.9597     1.1688 C.3     
  30 C30            5.8725    -4.5113     1.1710 C.3     
  31 C31            6.0957    -8.3338     1.1495 C.2     
  32 O32            6.3871    -9.0697     0.2365 O.2     
  33 O33            5.3396    -8.7871     2.1618 O.3     
  34 C34            4.9079   -10.1717     2.0934 C.3     
  35 C35            6.1336   -11.0867     2.0540 C.3     
  36 C36            4.0630   -10.5039     3.3249 C.3     
  37 C37            4.0724   -10.3836     0.8293 C.3     
  38 H38           -0.9614     1.9069     0.0169 H       
  39 H39            1.1417     3.1785     0.0079 H       
  40 H40            4.0192     2.7439    -0.0235 H       
  41 H41            8.9173    -0.7238    -0.0896 H       
  42 H42            8.8532     1.8407    -0.0753 H       
  43 H43            5.3526    -2.0025    -0.0604 H       
  44 H44            1.1893    -1.7648    -0.0176 H       
  45 H45            6.0941    -4.4284    -0.9702 H       
  46 H46            8.5023    -5.0188    -0.9979 H       
  47 H47            8.5205    -5.0277     0.7819 H       
  48 H48           -1.1546    -1.7218     0.5177 H       
  49 H49           -2.0564    -0.1872     0.5345 H       
  50 H50           -2.5486    -2.9117    -1.0106 H       
  51 H51           -3.6848    -1.5545    -0.8153 H       
  52 H52            0.1967    -0.7737    -2.1738 H       
  53 H53           -0.2691    -2.4532    -1.8084 H       
  54 H54           -1.3993    -0.7112    -4.0468 H       
  55 H55           -0.2936    -2.0932    -4.2434 H       
  56 H56           -4.1211    -2.8632    -2.9038 H       
  57 H57           -3.6850    -1.1711    -3.2469 H       
  58 H58            6.8026    -6.8243    -0.9895 H       
  59 H59            8.2711    -7.3251    -0.1171 H       
  60 H60            7.1936    -6.7331     2.0363 H       
  61 H61            4.7671    -6.1338     0.2842 H       
  62 H62            4.7854    -6.1427     2.0640 H       
  63 H63            6.4850    -4.3372     2.0556 H       
  64 H64            5.0166    -3.8364     1.1832 H       
  65 H65            6.7288   -10.9357     2.9545 H       
  66 H66            5.8095   -12.1261     2.0026 H       
  67 H67            6.7355   -10.8501     1.1766 H       
  68 H68            3.1898    -9.8520     3.3530 H       
  69 H69            3.7389   -11.5433     3.2736 H       
  70 H70            4.6582   -10.3529     4.2254 H       
  71 H71            4.6744   -10.1470    -0.0480 H       
  72 H72            3.7483   -11.4231     0.7780 H       
  73 H73            3.1992    -9.7318     0.8574 H       
@<TRIPOS>BOND
   1    1    2 ar
   2    1    5 ar
   3    1   38 1
   4    2   17 ar
   5    2   20 1
   6    3    4 ar
   7    3    6 1
   8    3   17 ar
   9    4    5 ar
  10    4    8 1
  11    5   39 1
  12    6    7 2
  13    7    8 1
  14    7    9 1
  15    8   40 1
  16    9   10 1
  17    9   13 2
  18   10   11 2
  19   10   14 1
  20   11   12 1
  21   11   41 1
  22   12   13 1
  23   12   42 1
  24   14   15 am
  25   14   43 1
  26   15   16 2
  27   15   18 1
  28   17   44 1
  29   18   19 1
  30   18   30 1
  31   18   45 1
  32   19   27 1
  33   19   46 1
  34   19   47 1
  35   20   21 1
  36   20   48 1
  37   20   49 1
  38   21   22 1
  39   21   23 1
  40   22   26 1
  41   22   50 1
  42   22   51 1
  43   23   24 1
  44   23   52 1
  45   23   53 1
  46   24   25 1
  47   24   54 1
  48   24   55 1
  49   25   26 1
  50   26   56 1
  51   26   57 1
  52   27   28 1
  53   27   58 1
  54   27   59 1
  55   28   29 1
  56   28   31 1
  57   28   60 1
  58   29   30 1
  59   29   61 1
  60   29   62 1
  61   30   63 1
  62   30   64 1
  63   31   32 2
  64   31   33 1
  65   33   34 1
  66   34   35 1
  67   34   36 1
  68   34   37 1
  69   35   65 1
  70   35   66 1
  71   35   67 1
  72   36   68 1
  73   36   69 1
  74   36   70 1
  75   37   71 1
  76   37   72 1
  77   37   73 1

#	End of record

