#	Name: ASD01910057
#	Creating user name:	WinNT
#	Creation time:	15. 06. 2019 19:55

#	Modifying user name:	WinNT
#	Modification time:	15. 06. 2019 19:55

#	Program:	/corina/corina34_cracker 3.40 0067  02.08.2006

@<TRIPOS>MOLECULE
ASD01910057
  57   61    0    0    0
SMALL
NO_CHARGES


@<TRIPOS>ATOM
   1 C1            -2.0655     1.2761     4.0855 C.2     
   2 N2            -1.3039     1.5174     3.0388 N.2     
   3 N3            -2.0838     1.3730     1.8844 N.pl3   
   4 C4            -3.3461     1.0354     2.2690 C.2     
   5 C5            -3.3585     0.9633     3.6258 C.2     
   6 C6            -1.6336     1.3201     5.5045 C.ar    
   7 C7            -0.3157     1.6398     5.8247 C.ar    
   8 C8             0.0805     1.6797     7.1461 C.ar    
   9 C9            -0.8278     1.4026     8.1518 C.ar    
  10 C10           -2.1374     1.0846     7.8397 C.ar    
  11 C11           -2.5458     1.0474     6.5219 C.ar    
  12 C12           -1.6433     1.5462     0.5660 C.ar    
  13 N13           -4.4300     0.8003     1.4218 N.am    
  14 C14           -5.2590     1.8104     1.0920 C.2     
  15 C15           -5.1316     3.1204     1.7642 C.ar    
  16 C16           -6.2538     3.9375     1.9202 C.ar    
  17 C17           -6.1352     5.1579     2.5469 C.ar    
  18 C18           -4.8927     5.5788     3.0267 C.ar    
  19 C19           -3.7705     4.7618     2.8707 C.ar    
  20 C20           -3.8901     3.5390     2.2487 C.ar    
  21 O21           -6.1112     1.6441     0.2419 O.2     
  22 C22           -0.7766     2.5851     0.2528 C.ar    
  23 C23           -0.3437     2.7529    -1.0479 C.ar    
  24 C24           -0.7723     1.8878    -2.0379 C.ar    
  25 C25           -1.6358     0.8526    -1.7293 C.ar    
  26 C26           -2.0678     0.6760    -0.4294 C.ar    
  27 C27           -4.6477    -0.4369     0.9336 C.2     
  28 C28           -3.8259    -1.5719     1.4033 C.ar    
  29 C29           -4.4262    -2.8035     1.6752 C.ar    
  30 C30           -3.6603    -3.8612     2.1124 C.ar    
  31 C31           -2.2832    -3.7024     2.2841 C.ar    
  32 C32           -1.6829    -2.4707     2.0123 C.ar    
  33 C33           -2.4479    -1.4146     1.5699 C.ar    
  34 O34           -5.5197    -0.6192     0.1072 O.2     
  35 C35           -4.7692     6.8481     3.6780 C.1     
  36 N36           -4.6713     7.8551     4.1947 N.1     
  37 C37           -1.4869    -4.8021     2.7392 C.1     
  38 N38           -0.8551    -5.6745     3.1003 N.1     
  39 H39           -4.2107     0.7173     4.2420 H       
  40 H40            0.3946     1.8556     5.0402 H       
  41 H41            1.1017     1.9274     7.3954 H       
  42 H42           -0.5134     1.4343     9.1846 H       
  43 H43           -2.8425     0.8691     8.6289 H       
  44 H44           -3.5685     0.7990     6.2793 H       
  45 H45           -7.2144     3.6122     1.5489 H       
  46 H46           -7.0028     5.7898     2.6672 H       
  47 H47           -2.8098     5.0872     3.2417 H       
  48 H48           -3.0226     2.9071     2.1284 H       
  49 H49           -0.4417     3.2612     1.0255 H       
  50 H50            0.3301     3.5608    -1.2922 H       
  51 H51           -0.4324     2.0211    -3.0543 H       
  52 H52           -1.9693     0.1790    -2.5048 H       
  53 H53           -2.7421    -0.1326    -0.1890 H       
  54 H54           -5.4910    -2.9262     1.5428 H       
  55 H55           -4.1245    -4.8133     2.3229 H       
  56 H56           -0.6181    -2.3479     2.1450 H       
  57 H57           -1.9838    -0.4624     1.3594 H       
@<TRIPOS>BOND
   1    1    2 2
   2    1    6 1
   3    1    5 1
   4    2    3 1
   5    3    4 1
   6    3   12 1
   7    4    5 2
   8    4   13 1
   9    5   39 1
  10    6    7 ar
  11    6   11 ar
  12    7    8 ar
  13    7   40 1
  14    8    9 ar
  15    8   41 1
  16    9   10 ar
  17    9   42 1
  18   10   11 ar
  19   10   43 1
  20   11   44 1
  21   12   22 ar
  22   12   26 ar
  23   13   14 am
  24   13   27 am
  25   14   15 1
  26   14   21 2
  27   15   16 ar
  28   15   20 ar
  29   16   17 ar
  30   16   45 1
  31   17   18 ar
  32   17   46 1
  33   18   19 ar
  34   18   35 1
  35   19   20 ar
  36   19   47 1
  37   20   48 1
  38   22   23 ar
  39   22   49 1
  40   23   24 ar
  41   23   50 1
  42   24   25 ar
  43   24   51 1
  44   25   26 ar
  45   25   52 1
  46   26   53 1
  47   27   28 1
  48   27   34 2
  49   28   29 ar
  50   28   33 ar
  51   29   30 ar
  52   29   54 1
  53   30   31 ar
  54   30   55 1
  55   31   32 ar
  56   31   37 1
  57   32   33 ar
  58   32   56 1
  59   33   57 1
  60   35   36 3
  61   37   38 3

#	End of record

