#	Name: ASD01410787
#	Creating user name:	WinNT
#	Creation time:	15. 06. 2019 19:18

#	Modifying user name:	WinNT
#	Modification time:	15. 06. 2019 19:18

#	Program:	/corina/corina34_cracker 3.40 0067  02.08.2006

@<TRIPOS>MOLECULE
ASD01410787
  75   79    0    0    0
SMALL
NO_CHARGES


@<TRIPOS>ATOM
   1 C1            -2.1958     3.5309    -0.0944 C.ar    
   2 C2            -1.8345     1.1599    -0.2484 C.ar    
   3 C3            -3.1816     0.9336    -0.0024 C.ar    
   4 C4            -4.0431     2.0204     0.2117 C.ar    
   5 C5            -3.5396     3.3223     0.1575 C.ar    
   6 O6            -1.7039     4.7976    -0.1416 O.3     
   7 C7            -1.4450     5.3353    -1.3600 C.ar    
   8 N8            -3.6749    -0.3695     0.0433 N.am    
   9 C9            -3.6232    -1.0696     1.1938 C.2     
  10 C10           -3.1111    -0.4160     2.4513 C.3     
  11 O11           -3.9888    -2.2258     1.2169 O.2     
  12 C12           -3.9063    -0.9296     3.6533 C.3     
  13 C13           -1.1109    -0.0921     3.9131 C.3     
  14 C14           -1.9061    -0.6057     5.1151 C.3     
  15 C15           -3.3864    -0.2659     4.9301 C.3     
  16 C16           -1.3862     0.0580     6.3918 C.3     
  17 N17           -1.6132     4.6026    -2.4486 N.ar    
  18 C18           -1.0116     6.6516    -1.4529 C.ar    
  19 C19           -0.7514     7.1884    -2.7019 C.ar    
  20 C20           -0.9351     6.3853    -3.8189 C.ar    
  21 C21           -1.3735     5.0863    -3.6524 C.ar    
  22 C22           -1.6308    -0.7557     2.6363 C.3     
  23 C23           -1.3455     2.4498    -0.2937 C.ar    
  24 C24           -4.2495    -0.9777    -1.1592 C.3     
  25 C25           -3.1655    -1.6839    -1.9320 C.ar    
  26 C26           -2.8873    -3.0133    -1.6727 C.ar    
  27 C27           -1.8941    -3.6630    -2.3796 C.ar    
  28 C28           -1.1754    -2.9803    -3.3506 C.ar    
  29 C29           -1.4566    -1.6463    -3.6088 C.ar    
  30 C30           -2.4546    -1.0029    -2.9029 C.ar    
  31 O31           -0.1977    -3.6169    -4.0471 O.3     
  32 C32            0.0583    -4.9167    -3.7444 C.ar    
  33 C33           -0.7885    -5.9165    -4.2012 C.ar    
  34 C34            1.1701    -5.2469    -2.9826 C.ar    
  35 C35            1.4280    -6.5689    -2.6762 C.ar    
  36 C36            0.5797    -7.5628    -3.1283 C.ar    
  37 C37           -0.5260    -7.2369    -3.8919 C.ar    
  38 C38           -0.8274     7.4844    -0.2104 C.3     
  39 F39           -0.3877     8.7636    -0.5674 F       
  40 F40           -2.0460     7.5831     0.4696 F       
  41 F41            0.1223     6.8796     0.6198 F       
  42 C42           -5.4753     1.7903     0.4732 C.2     
  43 O43           -5.9129     0.6571     0.5039 O.2     
  44 O44           -6.2994     2.8366     0.6782 O.3     
  45 H45           -1.1692     0.3254    -0.4134 H       
  46 H46           -4.1982     4.1642     0.3124 H       
  47 H47           -3.2287     0.6648     2.3728 H       
  48 H48           -4.9609    -0.6875     3.5215 H       
  49 H49           -3.7887    -2.0104     3.7318 H       
  50 H50           -1.2285     0.9887     3.8346 H       
  51 H51           -0.0563    -0.3341     4.0449 H       
  52 H52           -1.7885    -1.6865     5.1935 H       
  53 H53           -3.5040     0.8149     4.8516 H       
  54 H54           -3.9529    -0.6318     5.7864 H       
  55 H55           -1.5038     1.1388     6.3133 H       
  56 H56           -1.9527    -0.3079     7.2481 H       
  57 H57           -0.3316    -0.1841     6.5236 H       
  58 H58           -0.4135     8.2090    -2.8050 H       
  59 H59           -0.7413     6.7734    -4.8079 H       
  60 H60           -1.5177     4.4572    -4.5183 H       
  61 H61           -1.5131    -1.8365     2.7148 H       
  62 H62           -1.0643    -0.3898     1.7800 H       
  63 H63           -0.2964     2.6199    -0.4856 H       
  64 H64           -5.0174    -1.6959    -0.8716 H       
  65 H65           -4.6932    -0.2014    -1.7825 H       
  66 H66           -3.4467    -3.5441    -0.9166 H       
  67 H67           -1.6770    -4.7012    -2.1765 H       
  68 H68           -0.8987    -1.1127    -4.3640 H       
  69 H69           -2.6741     0.0353    -3.1038 H       
  70 H70           -1.6522    -5.6624    -4.7977 H       
  71 H71            1.8334    -4.4710    -2.6299 H       
  72 H72            2.2932    -6.8264    -2.0834 H       
  73 H73            0.7833    -8.5958    -2.8879 H       
  74 H74           -1.1873    -8.0151    -4.2435 H       
  75 H75           -7.2304     2.6359     0.8459 H       
@<TRIPOS>BOND
   1    1   23 ar
   2    1    6 1
   3    1    5 ar
   4    2    3 ar
   5    2   23 ar
   6    2   45 1
   7    3    4 ar
   8    3    8 1
   9    4    5 ar
  10    4   42 1
  11    5   46 1
  12    6    7 1
  13    7   18 ar
  14    7   17 ar
  15    8    9 am
  16    8   24 1
  17    9   11 2
  18    9   10 1
  19   10   12 1
  20   10   22 1
  21   10   47 1
  22   12   15 1
  23   12   48 1
  24   12   49 1
  25   13   14 1
  26   13   22 1
  27   13   50 1
  28   13   51 1
  29   14   15 1
  30   14   16 1
  31   14   52 1
  32   15   53 1
  33   15   54 1
  34   16   55 1
  35   16   56 1
  36   16   57 1
  37   17   21 ar
  38   18   19 ar
  39   18   38 1
  40   19   20 ar
  41   19   58 1
  42   20   21 ar
  43   20   59 1
  44   21   60 1
  45   22   61 1
  46   22   62 1
  47   23   63 1
  48   24   25 1
  49   24   64 1
  50   24   65 1
  51   25   26 ar
  52   25   30 ar
  53   26   27 ar
  54   26   66 1
  55   27   28 ar
  56   27   67 1
  57   28   29 ar
  58   28   31 1
  59   29   30 ar
  60   29   68 1
  61   30   69 1
  62   31   32 1
  63   32   33 ar
  64   32   34 ar
  65   33   37 ar
  66   33   70 1
  67   34   35 ar
  68   34   71 1
  69   35   36 ar
  70   35   72 1
  71   36   37 ar
  72   36   73 1
  73   37   74 1
  74   38   39 1
  75   38   40 1
  76   38   41 1
  77   42   43 2
  78   42   44 1
  79   44   75 1

#	End of record

