#	Name: ASD04882169
#	Creating user name:	WinNT
#	Creation time:	15. 06. 2019 20:54

#	Modifying user name:	WinNT
#	Modification time:	15. 06. 2019 20:54

#	Program:	/corina/corina34_cracker 3.40 0067  02.08.2006

@<TRIPOS>MOLECULE
ASD04882169
  81   85    0    0    0
SMALL
NO_CHARGES


@<TRIPOS>ATOM
   1 C1            -0.1617     1.4702     0.4540 C.2     
   2 C2            -0.1422     0.0094     0.4883 C.2     
   3 N3            -1.1637    -0.6908    -0.0433 N.am    
   4 C4            -1.0913    -2.0879    -0.1181 C.ar    
   5 C5            -2.2495    -2.8570     0.0250 C.ar    
   6 C6            -2.1792    -4.2434    -0.0495 C.ar    
   7 C7            -0.9687    -4.8640    -0.2643 C.ar    
   8 C8             0.1935    -4.1010    -0.4083 C.ar    
   9 C9             0.1247    -2.7067    -0.3391 C.ar    
  10 N10           -3.4756    -2.2336     0.2429 N.3     
  11 C11           -3.4998    -1.5615     1.5495 C.3     
  12 C12           -4.5823    -3.1935     0.1269 C.3     
  13 C13           -5.9131    -2.4561     0.2937 C.3     
  14 N14           -5.9373    -1.7840     1.6003 N.3     
  15 C15           -4.8306    -0.8241     1.7162 C.3     
  16 C16           -7.1671    -1.1587     1.8189 C.ar    
  17 C17           -7.6084    -0.1684     0.9508 C.ar    
  18 C18           -7.9542    -1.5300     2.9018 C.ar    
  19 C19           -9.1693    -0.9099     3.1150 C.ar    
  20 C20           -9.6034     0.0796     2.2516 C.ar    
  21 C21           -8.8250     0.4479     1.1698 C.ar    
  22 C22            1.4900    -4.7661    -0.6384 C.2     
  23 N23            1.5545    -6.1104    -0.7100 N.am    
  24 O24            2.5006    -4.1015    -0.7635 O.2     
  25 O25            0.7972    -0.5752     0.9972 O.2     
  26 C26            2.8420    -6.7709    -0.9385 C.3     
  27 C27            2.6380    -8.2867    -0.9766 C.3     
  28 C28            3.9826    -8.9765    -1.2153 C.3     
  29 N29            3.7872   -10.4280    -1.2518 N.am    
  30 C30            3.5178   -11.1292    -2.3665 C.2     
  31 C31            3.3688   -12.5975    -2.0342 C.3     
  32 C32            3.1758   -12.6214    -0.5002 C.3     
  33 C33            3.8667   -11.3040    -0.0770 C.3     
  34 C34           -7.4825    -2.6087     3.8426 C.3     
  35 O35            3.4096   -10.6539    -3.4770 O.2     
  36 O36           -1.1404     2.2399    -0.0722 O.3     
  37 C37            0.8120     2.3060     0.9580 C.2     
  38 C38            0.3856     3.6148     0.7108 C.2     
  39 C39           -0.8175     3.5328     0.0768 C.2     
  40 N40           -1.5820     4.6088    -0.3447 N.am    
  41 C41           -2.7604     4.3969    -0.9635 C.2     
  42 C42           -3.5919     5.5671    -1.4220 C.3     
  43 O43           -3.1517     3.2644    -1.1513 O.2     
  44 H44           -1.9490    -0.2275    -0.3741 H       
  45 H45           -3.0758    -4.8351     0.0618 H       
  46 H46           -0.9173    -5.9413    -0.3213 H       
  47 H47            1.0210    -2.1144    -0.4503 H       
  48 H48           -3.3929    -2.3025     2.3417 H       
  49 H49           -2.6786    -0.8470     1.6062 H       
  50 H50           -4.5503    -3.6688    -0.8534 H       
  51 H51           -4.4877    -3.9530     0.9030 H       
  52 H52           -6.0200    -1.7151    -0.4985 H       
  53 H53           -6.7343    -3.1706     0.2370 H       
  54 H54           -4.8626    -0.3488     2.6966 H       
  55 H55           -4.9252    -0.0646     0.9402 H       
  56 H56           -7.0008     0.1197     0.1056 H       
  57 H57           -9.7817    -1.1980     3.9566 H       
  58 H58          -10.5546     0.5626     2.4202 H       
  59 H59           -9.1668     1.2209     0.4976 H       
  60 H60            0.7484    -6.6406    -0.6102 H       
  61 H61            3.2584    -6.4363    -1.8887 H       
  62 H62            3.5290    -6.5169    -0.1313 H       
  63 H63            2.2216    -8.6213    -0.0265 H       
  64 H64            1.9510    -8.5407    -1.7839 H       
  65 H65            4.3990    -8.6420    -2.1655 H       
  66 H66            4.6696    -8.7226    -0.4081 H       
  67 H67            2.4954   -13.0153    -2.5351 H       
  68 H68            4.2686   -13.1453    -2.3140 H       
  69 H69            2.1173   -12.6125    -0.2400 H       
  70 H70            3.6776   -13.4817    -0.0572 H       
  71 H71            4.9063   -11.4925     0.1910 H       
  72 H72            3.3363   -10.8523     0.7613 H       
  73 H73           -6.9045    -2.1594     4.6501 H       
  74 H74           -8.3444    -3.1299     4.2591 H       
  75 H75           -6.8575    -3.3171     3.2989 H       
  76 H76            1.7267     2.0078     1.4488 H       
  77 H77            0.9104     4.5209     0.9756 H       
  78 H78           -1.2691     5.5146    -0.1945 H       
  79 H79           -3.0217     6.1599    -2.1373 H       
  80 H80           -4.5025     5.2019    -1.8969 H       
  81 H81           -3.8528     6.1860    -0.5635 H       
@<TRIPOS>BOND
   1    1    2 1
   2    1   37 2
   3    1   36 1
   4    2    3 am
   5    2   25 2
   6    3    4 1
   7    3   44 1
   8    4    5 ar
   9    4    9 ar
  10    5    6 ar
  11    5   10 1
  12    6    7 ar
  13    6   45 1
  14    7    8 ar
  15    7   46 1
  16    8    9 ar
  17    8   22 1
  18    9   47 1
  19   10   11 1
  20   10   12 1
  21   11   15 1
  22   11   48 1
  23   11   49 1
  24   12   13 1
  25   12   50 1
  26   12   51 1
  27   13   14 1
  28   13   52 1
  29   13   53 1
  30   14   15 1
  31   14   16 1
  32   15   54 1
  33   15   55 1
  34   16   17 ar
  35   16   18 ar
  36   17   21 ar
  37   17   56 1
  38   18   19 ar
  39   18   34 1
  40   19   20 ar
  41   19   57 1
  42   20   21 ar
  43   20   58 1
  44   21   59 1
  45   22   23 am
  46   22   24 2
  47   23   26 1
  48   23   60 1
  49   26   27 1
  50   26   61 1
  51   26   62 1
  52   27   28 1
  53   27   63 1
  54   27   64 1
  55   28   29 1
  56   28   65 1
  57   28   66 1
  58   29   30 am
  59   29   33 1
  60   30   31 1
  61   30   35 2
  62   31   32 1
  63   31   67 1
  64   31   68 1
  65   32   33 1
  66   32   69 1
  67   32   70 1
  68   33   71 1
  69   33   72 1
  70   34   73 1
  71   34   74 1
  72   34   75 1
  73   36   39 1
  74   37   38 1
  75   37   76 1
  76   38   39 2
  77   38   77 1
  78   39   40 1
  79   40   41 am
  80   40   78 1
  81   41   42 1
  82   41   43 2
  83   42   79 1
  84   42   80 1
  85   42   81 1

#	End of record

