#	Name: ASD01910181
#	Creating user name:	WinNT
#	Creation time:	15. 06. 2019 19:55

#	Modifying user name:	WinNT
#	Modification time:	15. 06. 2019 19:55

#	Program:	/corina/corina34_cracker 3.40 0067  02.08.2006

@<TRIPOS>MOLECULE
ASD01910181
  43   46    0    0    0
SMALL
NO_CHARGES


@<TRIPOS>ATOM
   1 C1             0.1643     1.6631    -0.3706 C.ar    
   2 C2             0.1005     0.2848    -0.3046 C.ar    
   3 C3             1.2649    -0.4601    -0.1615 C.ar    
   4 C4             2.4924     0.1820    -0.0850 C.ar    
   5 C5             2.5530     1.5669    -0.1517 C.ar    
   6 C6             1.3852     2.3057    -0.2948 C.ar    
   7 N7             3.7882     2.2180    -0.0745 N.am    
   8 C8             4.0019     3.3441    -0.7835 C.2     
   9 C9             5.2621     4.0974    -0.6122 C.ar    
  10 N10            1.1994    -1.8554    -0.0942 N.am    
  11 C11            2.1777    -2.6032    -0.6421 C.2     
  12 C12            5.4864     5.2639    -1.3450 C.ar    
  13 C13            6.6645     5.9631    -1.1805 C.ar    
  14 C14            7.6231     5.5104    -0.2921 C.ar    
  15 C15            7.4075     4.3537     0.4384 C.ar    
  16 C16            6.2305     3.6482     0.2872 C.ar    
  17 O17            3.1585    -2.0659    -1.1196 O.2     
  18 O18            3.1581     3.7404    -1.5638 O.2     
  19 C19            2.0586    -4.0740    -0.6626 C.ar    
  20 Cl20           8.6167     3.7935     1.5510 Cl      
  21 C21            0.9327    -4.6930    -0.1147 C.ar    
  22 C22            0.8230    -6.0665    -0.1351 C.ar    
  23 C23            1.8289    -6.8395    -0.6987 C.ar    
  24 C24            2.9566    -6.2270    -1.2481 C.ar    
  25 C25            3.0694    -4.8509    -1.2356 C.ar    
  26 O26            1.9560    -8.1899    -0.8392 O.3     
  27 C27            2.9720    -8.3794    -1.8414 C.3     
  28 O28            3.7866    -7.1973    -1.7317 O.3     
  29 H29           -0.7417     2.2395    -0.4863 H       
  30 H30           -0.8554    -0.2144    -0.3638 H       
  31 H31            3.3987    -0.3946     0.0266 H       
  32 H32            1.4317     3.3834    -0.3468 H       
  33 H33            4.4913     1.8591     0.4893 H       
  34 H34            0.4499    -2.2851     0.3468 H       
  35 H35            4.7393     5.6185    -2.0396 H       
  36 H36            6.8388     6.8659    -1.7472 H       
  37 H37            8.5438     6.0611    -0.1678 H       
  38 H38            6.0629     2.7464     0.8574 H       
  39 H39            0.1483    -4.0951     0.3253 H       
  40 H40           -0.0484    -6.5432     0.2890 H       
  41 H41            3.9415    -4.3759    -1.6603 H       
  42 H42            3.5605    -9.2712    -1.6261 H       
  43 H43            2.5242    -8.4450    -2.8330 H       
@<TRIPOS>BOND
   1    1    2 ar
   2    1    6 ar
   3    1   29 1
   4    2    3 ar
   5    2   30 1
   6    3    4 ar
   7    3   10 1
   8    4    5 ar
   9    4   31 1
  10    5    6 ar
  11    5    7 1
  12    6   32 1
  13    7    8 am
  14    7   33 1
  15    8    9 1
  16    8   18 2
  17    9   12 ar
  18    9   16 ar
  19   10   11 am
  20   10   34 1
  21   11   17 2
  22   11   19 1
  23   12   13 ar
  24   12   35 1
  25   13   14 ar
  26   13   36 1
  27   14   15 ar
  28   14   37 1
  29   15   16 ar
  30   15   20 1
  31   16   38 1
  32   19   21 ar
  33   19   25 ar
  34   21   22 ar
  35   21   39 1
  36   22   23 ar
  37   22   40 1
  38   23   24 ar
  39   23   26 1
  40   24   25 ar
  41   24   28 1
  42   25   41 1
  43   26   27 1
  44   27   28 1
  45   27   42 1
  46   27   43 1

#	End of record

