#	Name: ASD08170231
#	Creating user name:	WinNT
#	Creation time:	15. 06. 2019 21:17

#	Modifying user name:	WinNT
#	Modification time:	15. 06. 2019 21:17

#	Program:	/corina/corina34_cracker 3.40 0067  02.08.2006

@<TRIPOS>MOLECULE
ASD08170231
  86   91    0    0    0
SMALL
NO_CHARGES


@<TRIPOS>ATOM
   1 N1             0.4199     3.4541     0.7904 N.2     
   2 N2             0.1051     2.2460     0.9780 N.2     
   3 C3             1.5666     3.6988     0.2316 C.2     
   4 S4             2.3455     2.2091    -0.0984 S.3     
   5 C5             0.9639     1.3567     0.5916 C.2     
   6 C6             0.8103    -0.1378     0.7103 C.3     
   7 C7             0.1333    -0.6825    -0.5490 C.3     
   8 C8            -0.6996    -2.7444    -1.6879 C.3     
   9 C9            -0.8532    -4.2389    -1.5692 C.2     
  10 N10           -1.8678    -4.8648    -1.0629 N.2     
  11 S11            0.3133    -5.4502    -2.1018 S.3     
  12 C12           -0.7430    -6.6813    -1.5512 C.2     
  13 N13           -1.8068    -6.1257    -1.0544 N.2     
  14 N14           -0.5033    -8.0491    -1.6278 N.am    
  15 C15           -1.4172    -8.9208    -1.1571 C.2     
  16 O16           -2.4486    -8.5124    -0.6667 O.2     
  17 C17           -1.1575   -10.4029    -1.2401 C.3     
  18 N18            2.0772     4.9608    -0.0523 N.am    
  19 C19           -0.4269   -10.8550    -0.0019 C.ar    
  20 C20            1.3641     6.0617     0.2577 C.2     
  21 C21            1.9175     7.4292    -0.0499 C.3     
  22 O22            0.2771     5.9517     0.7843 O.2     
  23 C23            1.5064     7.8361    -1.4415 C.ar    
  24 C24           -0.0226    -2.1997    -0.4286 C.3     
  25 C25            2.4296     7.8103    -2.4701 C.ar    
  26 C26           -1.1027   -10.9613     1.1993 C.ar    
  27 C27            0.2049     8.2295    -1.6905 C.ar    
  28 C28           -0.1721     8.6027    -2.9670 C.ar    
  29 C29            0.7525     8.5828    -3.9944 C.ar    
  30 C30            2.0526     8.1836    -3.7466 C.ar    
  31 C31           -0.4326   -11.3759     2.3350 C.ar    
  32 C32            0.9133   -11.6847     2.2694 C.ar    
  33 C33            1.5888   -11.5793     1.0680 C.ar    
  34 C34            0.9177   -11.1688    -0.0687 C.ar    
  35 N35            1.3915     8.3997     0.9194 N.3     
  36 C36            1.9056     9.7489     0.6458 C.3     
  37 C37            1.2739    10.7410     1.6251 C.3     
  38 N38            1.5844    10.3314     3.0019 N.3     
  39 C39            1.0703     8.9822     3.2755 C.3     
  40 C40            1.7020     7.9901     2.2962 C.3     
  41 N41           -2.4360   -11.1190    -1.3431 N.3     
  42 C42           -2.2208   -12.5695    -1.4407 C.3     
  43 C43           -3.2239   -10.6286    -2.4826 C.3     
  44 C44           -3.5747   -13.2828    -1.4659 C.3     
  45 N45           -4.3627   -12.7924    -2.6054 N.3     
  46 C46           -4.5778   -11.3419    -2.5078 C.3     
  47 H47            1.7929    -0.5963     0.8218 H       
  48 H48            0.1990    -0.3721     1.5817 H       
  49 H49           -0.8492    -0.2239    -0.6606 H       
  50 H50            0.7447    -0.4481    -1.4205 H       
  51 H51           -0.0882    -2.5100    -2.5593 H       
  52 H52           -1.6822    -2.2859    -1.7994 H       
  53 H53            0.3215    -8.3758    -2.0199 H       
  54 H54           -0.5495   -10.6166    -2.1191 H       
  55 H55            2.9466     5.0488    -0.4735 H       
  56 H56            3.0052     7.4041     0.0150 H       
  57 H57            0.9600    -2.6582    -0.3170 H       
  58 H58           -0.6339    -2.4341     0.4429 H       
  59 H59            3.4454     7.4990    -2.2764 H       
  60 H60           -2.1542   -10.7200     1.2505 H       
  61 H61           -0.5175     8.2451    -0.8879 H       
  62 H62           -1.1892     8.9095    -3.1617 H       
  63 H63            0.4579     8.8741    -4.9918 H       
  64 H64            2.7750     8.1680    -4.5493 H       
  65 H65           -0.9603   -11.4582     3.2736 H       
  66 H66            1.4370   -12.0080     3.1569 H       
  67 H67            2.6404   -11.8203     1.0168 H       
  68 H68            1.4454   -11.0865    -1.0073 H       
  69 H69            2.9887     9.7570     0.7679 H       
  70 H70            1.6523    10.0344    -0.3752 H       
  71 H71            1.6756    11.7377     1.4429 H       
  72 H72            0.1931    10.7528     1.4843 H       
  73 H73            2.5763    10.3833     3.1796 H       
  74 H74            1.3236     8.6966     4.2965 H       
  75 H75           -0.0128     8.9740     3.1534 H       
  76 H76            1.3003     6.9933     2.4784 H       
  77 H77            2.7828     7.9782     2.4370 H       
  78 H78           -1.6737   -12.7952    -2.3560 H       
  79 H79           -1.6461   -12.9106    -0.5796 H       
  80 H80           -3.3806    -9.5547    -2.3811 H       
  81 H81           -2.6882   -10.8323    -3.4097 H       
  82 H82           -3.4181   -14.3567    -1.5674 H       
  83 H83           -4.1104   -13.0791    -0.5388 H       
  84 H84           -3.9225   -13.0346    -3.4804 H       
  85 H85           -5.1249   -11.1162    -1.5925 H       
  86 H86           -5.1525   -11.0009    -3.3689 H       
@<TRIPOS>BOND
   1    1    2 1
   2    1    3 2
   3    2    5 2
   4    3    4 1
   5    3   18 1
   6    4    5 1
   7    5    6 1
   8    6    7 1
   9    6   47 1
  10    6   48 1
  11    7   24 1
  12    7   49 1
  13    7   50 1
  14    8    9 1
  15    8   24 1
  16    8   51 1
  17    8   52 1
  18    9   10 2
  19    9   11 1
  20   10   13 1
  21   11   12 1
  22   12   13 2
  23   12   14 1
  24   14   15 am
  25   14   53 1
  26   15   16 2
  27   15   17 1
  28   17   19 1
  29   17   41 1
  30   17   54 1
  31   18   20 am
  32   18   55 1
  33   19   26 ar
  34   19   34 ar
  35   20   21 1
  36   20   22 2
  37   21   23 1
  38   21   35 1
  39   21   56 1
  40   23   25 ar
  41   23   27 ar
  42   24   57 1
  43   24   58 1
  44   25   30 ar
  45   25   59 1
  46   26   31 ar
  47   26   60 1
  48   27   28 ar
  49   27   61 1
  50   28   29 ar
  51   28   62 1
  52   29   30 ar
  53   29   63 1
  54   30   64 1
  55   31   32 ar
  56   31   65 1
  57   32   33 ar
  58   32   66 1
  59   33   34 ar
  60   33   67 1
  61   34   68 1
  62   35   36 1
  63   35   40 1
  64   36   37 1
  65   36   69 1
  66   36   70 1
  67   37   38 1
  68   37   71 1
  69   37   72 1
  70   38   39 1
  71   38   73 1
  72   39   40 1
  73   39   74 1
  74   39   75 1
  75   40   76 1
  76   40   77 1
  77   41   42 1
  78   41   43 1
  79   42   44 1
  80   42   78 1
  81   42   79 1
  82   43   46 1
  83   43   80 1
  84   43   81 1
  85   44   45 1
  86   44   82 1
  87   44   83 1
  88   45   46 1
  89   45   84 1
  90   46   85 1
  91   46   86 1

#	End of record

