#	Name: ASD01412019
#	Creating user name:	WinNT
#	Creation time:	15. 06. 2019 19:19

#	Modifying user name:	WinNT
#	Modification time:	15. 06. 2019 19:19

#	Program:	/corina/corina34_cracker 3.40 0067  02.08.2006

@<TRIPOS>MOLECULE
ASD01412019
  83   88    0    0    0
SMALL
NO_CHARGES


@<TRIPOS>ATOM
   1 C1            -1.1721     3.2495    -0.6273 C.ar    
   2 C2            -0.9748     1.9108    -1.0231 C.ar    
   3 C3            -2.0432     1.0032    -0.9792 C.ar    
   4 C4            -3.2692     1.4145    -0.5549 C.ar    
   5 C5            -3.4749     2.7445    -0.1596 C.ar    
   6 C6            -2.4229     3.6582    -0.1925 C.ar    
   7 N7             0.0357     3.9017    -0.7724 N.pl3   
   8 C8             0.9676     3.0075    -1.2441 C.2     
   9 C9             0.3828     1.7924    -1.4054 C.2     
  10 C10            1.0591     0.5407    -1.9024 C.3     
  11 C11            0.9714    -0.5467    -0.8297 C.3     
  12 C12            1.6580    -1.8175    -1.3343 C.3     
  13 C13            0.9630    -2.3010    -2.6087 C.3     
  14 C14            1.0507    -1.2136    -3.6814 C.3     
  15 C15            0.3641     0.0572    -3.1768 C.3     
  16 C16           -4.8093     3.1769     0.2972 C.2     
  17 O17           -4.9905     4.3293     0.6405 O.2     
  18 N18           -5.8275     2.2947     0.3342 N.am    
  19 C19           -7.1526     2.7241     0.7879 C.3     
  20 C20           -8.1045     1.5570     0.7344 C.2     
  21 C21           -7.0574     3.2391     2.2255 C.3     
  22 C22           -7.6654     3.8426    -0.1216 C.3     
  23 C23           -8.8163    -0.4853    -0.2473 C.ar    
  24 O24           -8.9742     1.4450     1.5722 O.2     
  25 C25           -9.1913    -1.0737     0.9569 C.ar    
  26 C26          -10.0113    -2.1788     0.9591 C.ar    
  27 C27          -10.4688    -2.7108    -0.2525 C.ar    
  28 C28          -10.0893    -2.1152    -1.4615 C.ar    
  29 C29           -9.2686    -1.0107    -1.4541 C.ar    
  30 C30          -11.3442    -3.8910    -0.2552 C.2     
  31 C31          -12.3915    -3.9573     0.5958 C.2     
  32 N32           -7.9893     0.6378    -0.2445 N.am    
  33 C33            0.2838     5.3142    -0.4734 C.3     
  34 C34            3.3463     3.1767    -0.5374 C.ar    
  35 C35            2.3826     3.3196    -1.5312 C.ar    
  36 C36            2.7629     3.7618    -2.8082 C.ar    
  37 C37            4.1136     4.0530    -3.0613 C.ar    
  38 C38            5.0636     3.9023    -2.0476 C.ar    
  39 C39            4.6749     3.4671    -0.7997 C.ar    
  40 N40            2.0702     3.9986    -3.9711 N.pl3   
  41 C41            2.9292     4.4270    -4.9462 C.2     
  42 C42            4.1796     4.4817    -4.4609 C.2     
  43 C43          -12.7894    -2.8059     1.3212 C.2     
  44 O44          -12.2154    -1.7479     1.1455 O.2     
  45 O45          -13.8047    -2.8838     2.2065 O.3     
  46 H46           -1.8930    -0.0224    -1.2826 H       
  47 H47           -4.0891     0.7123    -0.5227 H       
  48 H48           -2.5836     4.6817     0.1123 H       
  49 H49            2.1059     0.7546    -2.1183 H       
  50 H50            1.4666    -0.2022     0.0782 H       
  51 H51           -0.0754    -0.7606    -0.6139 H       
  52 H52            2.7048    -1.6036    -1.5502 H       
  53 H53            1.5955    -2.5922    -0.5701 H       
  54 H54            1.4521    -3.2063    -2.9682 H       
  55 H55           -0.0838    -2.5148    -2.3929 H       
  56 H56            2.0975    -0.9997    -3.8973 H       
  57 H57            0.5555    -1.5580    -4.5893 H       
  58 H58           -0.6827    -0.1567    -2.9610 H       
  59 H59            0.4265     0.8319    -3.9410 H       
  60 H60           -5.6830     1.3754     0.0604 H       
  61 H61           -6.3689     4.0832     2.2642 H       
  62 H62           -8.0433     3.5586     2.5630 H       
  63 H63           -6.6921     2.4423     2.8734 H       
  64 H64           -7.7333     3.4757    -1.1457 H       
  65 H65           -8.6513     4.1621     0.2160 H       
  66 H66           -6.9769     4.6867    -0.0829 H       
  67 H67           -8.8379    -0.6626     1.8909 H       
  68 H68          -10.3012    -2.6352     1.8940 H       
  69 H69          -10.4396    -2.5225    -2.3984 H       
  70 H70           -8.9756    -0.5504    -2.3861 H       
  71 H71          -11.1505    -4.7055    -0.9375 H       
  72 H72          -12.9255    -4.8873     0.7234 H       
  73 H73           -7.3313     0.7573    -0.9471 H       
  74 H74            0.5957     5.4163     0.5660 H       
  75 H75            1.0700     5.6914    -1.1274 H       
  76 H76           -0.6298     5.8860    -0.6364 H       
  77 H77            3.0554     2.8409     0.4470 H       
  78 H78            6.1019     4.1266    -2.2425 H       
  79 H79            5.4123     3.3523    -0.0190 H       
  80 H80            1.1142     3.8794    -4.0841 H       
  81 H81            2.6437     4.6827    -5.9559 H       
  82 H82            5.0655     4.7843    -4.9995 H       
  83 H83          -14.0031    -2.0487     2.6518 H       
@<TRIPOS>BOND
   1    1    2 ar
   2    1    7 1
   3    1    6 ar
   4    2    3 ar
   5    2    9 1
   6    3    4 ar
   7    3   46 1
   8    4    5 ar
   9    4   47 1
  10    5    6 ar
  11    5   16 1
  12    6   48 1
  13    7    8 1
  14    7   33 1
  15    8    9 2
  16    8   35 1
  17    9   10 1
  18   10   11 1
  19   10   15 1
  20   10   49 1
  21   11   12 1
  22   11   50 1
  23   11   51 1
  24   12   13 1
  25   12   52 1
  26   12   53 1
  27   13   14 1
  28   13   54 1
  29   13   55 1
  30   14   15 1
  31   14   56 1
  32   14   57 1
  33   15   58 1
  34   15   59 1
  35   16   17 2
  36   16   18 am
  37   18   19 1
  38   18   60 1
  39   19   20 1
  40   19   21 1
  41   19   22 1
  42   20   24 2
  43   20   32 am
  44   21   61 1
  45   21   62 1
  46   21   63 1
  47   22   64 1
  48   22   65 1
  49   22   66 1
  50   23   25 ar
  51   23   29 ar
  52   23   32 1
  53   25   26 ar
  54   25   67 1
  55   26   27 ar
  56   26   68 1
  57   27   28 ar
  58   27   30 1
  59   28   29 ar
  60   28   69 1
  61   29   70 1
  62   30   31 2
  63   30   71 1
  64   31   43 1
  65   31   72 1
  66   32   73 1
  67   33   74 1
  68   33   75 1
  69   33   76 1
  70   34   35 ar
  71   34   39 ar
  72   34   77 1
  73   35   36 ar
  74   36   37 ar
  75   36   40 1
  76   37   38 ar
  77   37   42 1
  78   38   39 ar
  79   38   78 1
  80   39   79 1
  81   40   41 1
  82   40   80 1
  83   41   42 2
  84   41   81 1
  85   42   82 1
  86   43   44 2
  87   43   45 1
  88   45   83 1

#	End of record

