#	Name: ASD01884392
#	Creating user name:	WinNT
#	Creation time:	15. 06. 2019 19:48

#	Modifying user name:	WinNT
#	Modification time:	15. 06. 2019 19:48

#	Program:	/corina/corina34_cracker 3.40 0067  02.08.2006

@<TRIPOS>MOLECULE
ASD01884392
  42   45    0    0    0
SMALL
NO_CHARGES


@<TRIPOS>ATOM
   1 C1             0.7676    -1.4693     0.5935 C.ar    
   2 C2            -0.4680    -0.8451     0.6860 C.ar    
   3 O3            -1.2416    -0.6808    -0.4190 O.3     
   4 C4            -2.4517    -0.0804    -0.2674 C.ar    
   5 C5            -2.5248     1.2978    -0.0820 C.ar    
   6 C6            -3.6067    -0.8386    -0.3032 C.ar    
   7 C7            -3.7421     1.9218     0.0727 C.ar    
   8 C8            -4.9174     1.1750     0.0453 C.ar    
   9 C9            -4.8444    -0.2148    -0.1473 C.ar    
  10 N10           -6.1426     1.7923     0.1996 N.pl3   
  11 C11           -7.3019     1.1187     0.1809 C.2     
  12 C12           -7.3545    -0.2488     0.0045 C.2     
  13 C13           -6.0976    -0.9920    -0.1739 C.2     
  14 O14           -6.0919    -2.2003    -0.3330 O.2     
  15 C15           -8.6471    -0.9516    -0.0096 C.2     
  16 O16           -9.6843    -0.3184     0.0445 O.2     
  17 N17           -8.6819    -2.2969    -0.0825 N.am    
  18 C18           -6.1760     3.1797     0.3837 C.ar    
  19 C19           -6.6698     4.0028    -0.6201 C.ar    
  20 C20           -6.7023     5.3710    -0.4362 C.ar    
  21 C21           -6.2426     5.9226     0.7480 C.ar    
  22 C22           -5.7499     5.1037     1.7503 C.ar    
  23 C23           -5.7208     3.7346     1.5728 C.ar    
  24 F24           -6.2745     7.2615     0.9256 F       
  25 N25            1.5212    -1.6312     1.6630 N.ar    
  26 C26            1.1377    -1.2117     2.8528 C.ar    
  27 C27           -0.0806    -0.5810     3.0244 C.ar    
  28 C28           -0.9039    -0.3900     1.9268 C.ar    
  29 H29            1.1136    -1.8303    -0.3637 H       
  30 H30           -1.6173     1.8830    -0.0590 H       
  31 H31           -3.5513    -1.9069    -0.4514 H       
  32 H32           -3.7858     2.9914     0.2158 H       
  33 H33           -8.2250     1.6646     0.3084 H       
  34 H34           -7.8566    -2.8057    -0.0525 H       
  35 H35           -9.5322    -2.7563    -0.1650 H       
  36 H36           -7.0277     3.5731    -1.5441 H       
  37 H37           -7.0862     6.0114    -1.2166 H       
  38 H38           -5.3915     5.5360     2.6729 H       
  39 H39           -5.3368     3.0963     2.3548 H       
  40 H40            1.7839    -1.3632     3.7048 H       
  41 H41           -0.3867    -0.2410     4.0027 H       
  42 H42           -1.8607     0.0999     2.0315 H       
@<TRIPOS>BOND
   1    1    2 ar
   2    1   25 ar
   3    1   29 1
   4    2    3 1
   5    2   28 ar
   6    3    4 1
   7    4    5 ar
   8    4    6 ar
   9    5    7 ar
  10    5   30 1
  11    6    9 ar
  12    6   31 1
  13    7    8 ar
  14    7   32 1
  15    8    9 ar
  16    8   10 1
  17    9   13 1
  18   10   11 1
  19   10   18 1
  20   11   12 2
  21   11   33 1
  22   12   13 1
  23   12   15 1
  24   13   14 2
  25   15   16 2
  26   15   17 am
  27   17   34 1
  28   17   35 1
  29   18   19 ar
  30   18   23 ar
  31   19   20 ar
  32   19   36 1
  33   20   21 ar
  34   20   37 1
  35   21   22 ar
  36   21   24 1
  37   22   23 ar
  38   22   38 1
  39   23   39 1
  40   25   26 ar
  41   26   27 ar
  42   26   40 1
  43   27   28 ar
  44   27   41 1
  45   28   42 1

#	End of record

