#	Name: ASD01815028
#	Creating user name:	WinNT
#	Creation time:	15. 06. 2019 19:33

#	Modifying user name:	WinNT
#	Modification time:	15. 06. 2019 19:33

#	Program:	/corina/corina34_cracker 3.40 0067  02.08.2006

@<TRIPOS>MOLECULE
ASD01815028
  52   55    0    0    0
SMALL
NO_CHARGES


@<TRIPOS>ATOM
   1 C1            -0.0887     1.4427    -0.0749 C.2     
   2 C2            -0.0645     0.0415    -0.0696 C.2     
   3 C3             1.1345    -0.6093    -0.0697 C.2     
   4 C4             2.3250     0.1365    -0.0750 C.2     
   5 N5             2.2718     1.5039    -0.0797 N.am    
   6 C6             1.0677     2.1434    -0.0799 C.2     
   7 C7             3.5585    -0.5300    -0.0749 C.2     
   8 C8             4.7209     0.1850    -0.0796 C.2     
   9 C9             4.6624     1.5910    -0.0850 C.2     
  10 C10            3.4067     2.2320    -0.0845 C.2     
  11 O11            3.3466     3.4499    -0.0895 O.2     
  12 C12            5.8952     2.3816    -0.0897 C.2     
  13 O13            5.8324     3.7291    -0.0948 O.3     
  14 O14            6.9759     1.8231    -0.0889 O.2     
  15 C15            3.6007    -2.0364    -0.0692 C.3     
  16 N16            3.7323    -2.5278    -1.4473 N.3     
  17 C17            4.0139    -3.9689    -1.4675 C.3     
  18 C18            4.2880    -4.4163    -2.9051 C.3     
  19 C19            3.0661    -4.1039    -3.7734 C.3     
  20 C20            2.7651    -2.6046    -3.6965 C.3     
  21 C21            2.5351    -2.2096    -2.2360 C.3     
  22 C22            3.3519    -4.4889    -5.2021 C.ar    
  23 H23            2.2069    -4.6671    -3.4093 H       
  24 H24            4.8874    -4.1769    -0.8496 H       
  25 H25            5.1560    -3.8832    -3.2929 H       
  26 C26            2.6303    -5.5036    -5.8019 C.ar    
  27 C27            2.8925    -5.8568    -7.1126 C.ar    
  28 C28            3.8760    -5.1949    -7.8232 C.ar    
  29 C29            4.5972    -4.1793    -7.2235 C.ar    
  30 C30            4.3321    -3.8232    -5.9146 C.ar    
  31 C31            1.5579    -6.2253    -5.0272 C.3     
  32 H32           -1.0343     1.9646    -0.0794 H       
  33 H33           -0.9878    -0.5187    -0.0652 H       
  34 H34            1.1682    -1.6888    -0.0653 H       
  35 H35            1.0372     3.2230    -0.0837 H       
  36 H36            5.6743    -0.3222    -0.0789 H       
  37 H37            6.6726     4.2078    -0.0977 H       
  38 H38            4.4536    -2.3737     0.5198 H       
  39 H39            2.6808    -2.4240     0.3685 H       
  40 H40            3.1542    -4.5124    -1.0755 H       
  41 H41            4.4816    -5.4889    -2.9217 H       
  42 H42            3.6091    -2.0429    -4.0968 H       
  43 H43            1.8706    -2.3827    -4.2786 H       
  44 H44            1.6824    -2.7614    -1.8405 H       
  45 H45            2.3346    -1.1399    -2.1763 H       
  46 H46            2.3290    -6.6502    -7.5812 H       
  47 H47            4.0813    -5.4713    -8.8469 H       
  48 H48            5.3659    -3.6623    -7.7786 H       
  49 H49            4.8955    -3.0298    -5.4461 H       
  50 H50            0.6283    -5.6586    -5.0792 H       
  51 H51            1.4042    -7.2157    -5.4557 H       
  52 H52            1.8657    -6.3237    -3.9862 H       
@<TRIPOS>BOND
   1    1    2 1
   2    1    6 2
   3    1   32 1
   4    2    3 2
   5    2   33 1
   6    3    4 1
   7    3   34 1
   8    4    5 1
   9    4    7 2
  10    5    6 1
  11    5   10 am
  12    6   35 1
  13    7    8 1
  14    7   15 1
  15    8    9 2
  16    8   36 1
  17    9   10 1
  18    9   12 1
  19   10   11 2
  20   12   13 1
  21   12   14 2
  22   13   37 1
  23   15   16 1
  24   15   38 1
  25   15   39 1
  26   16   17 1
  27   16   21 1
  28   17   18 1
  29   17   24 1
  30   17   40 1
  31   18   19 1
  32   18   25 1
  33   18   41 1
  34   19   23 1
  35   19   22 1
  36   19   20 1
  37   20   21 1
  38   20   42 1
  39   20   43 1
  40   21   44 1
  41   21   45 1
  42   22   26 ar
  43   22   30 ar
  44   26   27 ar
  45   26   31 1
  46   27   28 ar
  47   27   46 1
  48   28   29 ar
  49   28   47 1
  50   29   30 ar
  51   29   48 1
  52   30   49 1
  53   31   50 1
  54   31   51 1
  55   31   52 1

#	End of record

