#	Name: ASD01840216
#	Creating user name:	WinNT
#	Creation time:	15. 06. 2019 19:37

#	Modifying user name:	WinNT
#	Modification time:	15. 06. 2019 19:37

#	Program:	/corina/corina34_cracker 3.40 0067  02.08.2006

@<TRIPOS>MOLECULE
ASD01840216
  65   68    0    0    0
SMALL
NO_CHARGES


@<TRIPOS>ATOM
   1 C1            -0.1206     1.6053     0.1110 C.ar    
   2 C2            -0.1985     0.4283     0.8276 C.ar    
   3 N3             0.8669    -0.0899     1.4018 N.ar    
   4 C4             2.0657     0.4874     1.3231 C.ar    
   5 C5             2.2064     1.6741     0.6142 C.ar    
   6 C6             1.1077     2.2444     0.0004 C.ar    
   7 N7             3.2752     0.0719     1.8687 N.am    
   8 C8             4.3390     1.0207     1.5246 C.3     
   9 C9             3.6494     2.1026     0.6836 C.3     
  10 S10            3.4842    -1.2970     2.7768 S.o2    
  11 O11            2.2069    -1.5340     3.3525 O.2     
  12 C12            3.8858    -2.5866     1.5658 C.3     
  13 O13            4.6126    -1.0087     3.5909 O.2     
  14 C14            4.2606     2.1550    -0.7142 C.3     
  15 C15            5.7182     2.6128    -0.6119 C.3     
  16 N16            5.7732     3.9314     0.0319 N.3     
  17 C17            5.2465     3.8783     1.4016 C.3     
  18 C18            3.7733     3.4621     1.3665 C.3     
  19 C19            7.1401     4.4694     0.0140 C.3     
  20 C20            7.3137     5.3802    -1.2031 C.3     
  21 C21            7.2151     4.5460    -2.4824 C.3     
  22 C22            7.4238     5.4553    -3.6975 C.3     
  23 N23            6.4657     6.5669    -3.6265 N.am    
  24 C24            6.4142     7.3781    -2.4026 C.3     
  25 C25            6.2168     6.4473    -1.2020 C.3     
  26 C26            8.6840     6.0581    -1.1410 C.3     
  27 C27            5.6498     6.8375    -4.6645 C.2     
  28 O28            5.7023     6.1594    -5.6715 O.2     
  29 O29            4.7766     7.8592    -4.5858 O.3     
  30 C30            3.9291     8.0926    -5.7416 C.3     
  31 C31            3.0104     9.2851    -5.4678 C.3     
  32 H32           -0.9995     2.0204    -0.3599 H       
  33 H33           -1.1492    -0.0758     0.9191 H       
  34 H34            1.2018     3.1669    -0.5532 H       
  35 H35            4.7642     1.4571     2.4284 H       
  36 H36            5.1149     0.5247     0.9414 H       
  37 H37            4.7940    -2.3113     1.0296 H       
  38 H38            4.0415    -3.5339     2.0820 H       
  39 H39            3.0631    -2.6893     0.8582 H       
  40 H40            4.2214     1.1637    -1.1659 H       
  41 H41            3.7006     2.8586    -1.3302 H       
  42 H42            6.2838     1.8947    -0.0182 H       
  43 H43            6.1495     2.6779    -1.6109 H       
  44 H44            5.8155     3.1518     1.9818 H       
  45 H45            5.3354     4.8617     1.8634 H       
  46 H46            3.1991     4.2027     0.8097 H       
  47 H47            3.3900     3.3942     2.3846 H       
  48 H48            7.3172     5.0420     0.9244 H       
  49 H49            7.8534     3.6472    -0.0427 H       
  50 H50            7.9818     3.7714    -2.4716 H       
  51 H51            6.2300     4.0828    -2.5396 H       
  52 H52            8.4406     5.8481    -3.6895 H       
  53 H53            7.2568     4.8867    -4.6123 H       
  54 H54            7.3486     7.9278    -2.2890 H       
  55 H55            5.5810     8.0783    -2.4631 H       
  56 H56            5.2411     5.9662    -1.2713 H       
  57 H57            6.2730     7.0259    -0.2800 H       
  58 H58            9.4655     5.2983    -1.1406 H       
  59 H59            8.8081     6.7065    -2.0084 H       
  60 H60            8.7544     6.6524    -0.2300 H       
  61 H61            4.5510     8.3052    -6.6111 H       
  62 H62            3.3256     7.2057    -5.9346 H       
  63 H63            3.6139    10.1719    -5.2748 H       
  64 H64            2.3742     9.4603    -6.3354 H       
  65 H65            2.3885     9.0725    -4.5983 H       
@<TRIPOS>BOND
   1    1    2 ar
   2    1    6 ar
   3    1   32 1
   4    2    3 ar
   5    2   33 1
   6    3    4 ar
   7    4    5 ar
   8    4    7 1
   9    5    6 ar
  10    5    9 1
  11    6   34 1
  12    7    8 1
  13    7   10 am
  14    8    9 1
  15    8   35 1
  16    8   36 1
  17    9   14 1
  18    9   18 1
  19   10   11 2
  20   10   12 1
  21   10   13 2
  22   12   37 1
  23   12   38 1
  24   12   39 1
  25   14   15 1
  26   14   40 1
  27   14   41 1
  28   15   16 1
  29   15   42 1
  30   15   43 1
  31   16   17 1
  32   16   19 1
  33   17   18 1
  34   17   44 1
  35   17   45 1
  36   18   46 1
  37   18   47 1
  38   19   20 1
  39   19   48 1
  40   19   49 1
  41   20   21 1
  42   20   26 1
  43   20   25 1
  44   21   22 1
  45   21   50 1
  46   21   51 1
  47   22   23 1
  48   22   52 1
  49   22   53 1
  50   23   24 1
  51   23   27 am
  52   24   25 1
  53   24   54 1
  54   24   55 1
  55   25   56 1
  56   25   57 1
  57   26   58 1
  58   26   59 1
  59   26   60 1
  60   27   28 2
  61   27   29 1
  62   29   30 1
  63   30   31 1
  64   30   61 1
  65   30   62 1
  66   31   63 1
  67   31   64 1
  68   31   65 1

#	End of record

