#	Name: ASD03731818
#	Creating user name:	WinNT
#	Creation time:	15. 06. 2019 20:46

#	Modifying user name:	WinNT
#	Modification time:	15. 06. 2019 20:46

#	Program:	/corina/corina34_cracker 3.40 0067  02.08.2006

@<TRIPOS>MOLECULE
ASD03731818
  41   42    0    0    0
SMALL
NO_CHARGES


@<TRIPOS>ATOM
   1 C1             0.3752     1.0891     1.9877 C.2     
   2 C2             0.2912    -0.2858     1.4563 C.ar    
   3 C3             1.3730    -0.8351     0.7704 C.ar    
   4 C4             1.2884    -2.1324     0.2713 C.ar    
   5 C5             0.1135    -2.8776     0.4630 C.ar    
   6 C6            -0.9581    -2.3202     1.1481 C.ar    
   7 C7            -0.8721    -1.0393     1.6464 C.ar    
   8 O8             1.3880     1.7421     1.8268 O.2     
   9 N9            -0.6730     1.6222     2.6462 N.am    
  10 S10           -0.5788     3.1644     3.2421 S.o2    
  11 O11           -1.8312     3.3702     3.8812 O.2     
  12 O12            0.6333     3.1801     3.9836 O.2     
  13 C13           -0.4368     4.2115     1.7677 C.3     
  14 O14            0.0255    -4.1404    -0.0209 O.3     
  15 C15           -1.1655    -4.7849     0.0912 C.ar    
  16 C16           -2.1181    -4.6617    -0.9091 C.ar    
  17 C17           -3.3318    -5.3209    -0.7920 C.ar    
  18 C18           -3.5909    -6.1023     0.3254 C.ar    
  19 C19           -2.6403    -6.2235     1.3206 C.ar    
  20 C20           -1.4274    -5.5717     1.2040 C.ar    
  21 O21           -4.2675    -5.2017    -1.7704 O.3     
  22 C22           -5.4952    -5.9087    -1.5834 C.3     
  23 C23           -6.4166    -5.6555    -2.7783 C.3     
  24 C24            2.3950    -2.7043    -0.4350 C.1     
  25 N25            3.2729    -3.1580    -0.9954 N.1     
  26 H26            2.2735    -0.2565     0.6261 H       
  27 H27           -1.8607    -2.8949     1.2944 H       
  28 H28           -1.7074    -0.6134     2.1824 H       
  29 H29           -1.4825     1.1026     2.7710 H       
  30 H30           -1.3147     4.0719     1.1370 H       
  31 H31           -0.3687     5.2567     2.0696 H       
  32 H32            0.4584     3.9352     1.2107 H       
  33 H33           -1.9148    -4.0530    -1.7777 H       
  34 H34           -4.5366    -6.6157     0.4172 H       
  35 H35           -2.8439    -6.8320     2.1893 H       
  36 H36           -0.6843    -5.6713     1.9813 H       
  37 H37           -5.2909    -6.9763    -1.5019 H       
  38 H38           -5.9795    -5.5608    -0.6710 H       
  39 H39           -5.9323    -6.0034    -3.6907 H       
  40 H40           -7.3530    -6.1947    -2.6357 H       
  41 H41           -6.6208    -4.5879    -2.8598 H       
@<TRIPOS>BOND
   1    1    2 1
   2    1    8 2
   3    1    9 am
   4    2    3 ar
   5    2    7 ar
   6    3    4 ar
   7    3   26 1
   8    4    5 ar
   9    4   24 1
  10    5    6 ar
  11    5   14 1
  12    6    7 ar
  13    6   27 1
  14    7   28 1
  15    9   10 am
  16    9   29 1
  17   10   11 2
  18   10   12 2
  19   10   13 1
  20   13   30 1
  21   13   31 1
  22   13   32 1
  23   14   15 1
  24   15   16 ar
  25   15   20 ar
  26   16   17 ar
  27   16   33 1
  28   17   18 ar
  29   17   21 1
  30   18   19 ar
  31   18   34 1
  32   19   20 ar
  33   19   35 1
  34   20   36 1
  35   21   22 1
  36   22   23 1
  37   22   37 1
  38   22   38 1
  39   23   39 1
  40   23   40 1
  41   23   41 1
  42   24   25 3

#	End of record

