#	Name: ASD02038900
#	Creating user name:	WinNT
#	Creation time:	15. 06. 2019 20:17

#	Modifying user name:	WinNT
#	Modification time:	15. 06. 2019 20:17

#	Program:	/corina/corina34_cracker 3.40 0067  02.08.2006

@<TRIPOS>MOLECULE
ASD02038900
  46   48    0    0    0
SMALL
NO_CHARGES


@<TRIPOS>ATOM
   1 N1            -0.0367     1.4376    -0.0310 N.am    
   2 C2            -0.0685    -0.0323    -0.0359 C.3     
   3 C3             1.3949    -0.5222    -0.0377 C.3     
   4 C4             2.1690     0.6932     0.5374 C.3     
   5 C5             1.3693     1.8801    -0.0555 C.3     
   6 C6            -0.7754    -0.5338     1.1969 C.2     
   7 O7            -0.3938    -1.5410     1.7444 O.2     
   8 O8            -1.8288     0.1385     1.6868 O.3     
   9 C9            -1.1146     2.2465    -0.0130 C.2     
  10 O10           -2.2307     1.7735    -0.0972 O.2     
  11 O11           -0.9547     3.5787     0.0982 O.3     
  12 C12           -2.1598     4.3885     0.1109 C.3     
  13 C13           -1.7865     5.8427     0.2407 C.ar    
  14 C14           -1.5650     6.6032    -0.8922 C.ar    
  15 C15           -1.2225     7.9372    -0.7732 C.ar    
  16 C16           -1.1020     8.5107     0.4788 C.ar    
  17 C17           -1.3244     7.7505     1.6117 C.ar    
  18 C18           -1.6711     6.4176     1.4925 C.ar    
  19 C19           -0.7864    -0.5330    -1.2908 C.3     
  20 C20           -0.7066    -2.0368    -1.3489 C.ar    
  21 C21           -1.6366    -2.8049    -0.6734 C.ar    
  22 C22           -1.5634    -4.1843    -0.7266 C.ar    
  23 C23           -0.5605    -4.7956    -1.4556 C.ar    
  24 C24            0.3689    -4.0275    -2.1318 C.ar    
  25 C25            0.2931    -2.6481    -2.0821 C.ar    
  26 H26            1.5107    -1.3934     0.6071 H       
  27 H27            1.7257    -0.7452    -1.0521 H       
  28 H28            2.1301     0.7013     1.6267 H       
  29 H29            3.2003     0.7020     0.1848 H       
  30 H30            1.6870     2.0778    -1.0793 H       
  31 H31            1.4978     2.7698     0.5610 H       
  32 H32           -2.2496    -0.2218     2.4793 H       
  33 H33           -2.7098     4.2360    -0.8178 H       
  34 H34           -2.7846     4.0970     0.9551 H       
  35 H35           -1.6592     6.1551    -1.8704 H       
  36 H36           -1.0488     8.5312    -1.6583 H       
  37 H37           -0.8337     9.5527     0.5718 H       
  38 H38           -1.2299     8.1985     2.5898 H       
  39 H39           -1.8485     5.8246     2.3775 H       
  40 H40           -1.8317    -0.2256    -1.2585 H       
  41 H41           -0.3103    -0.1096    -2.1752 H       
  42 H42           -2.4201    -2.3273    -0.1039 H       
  43 H43           -2.2895    -4.7843    -0.1984 H       
  44 H44           -0.5029    -5.8733    -1.4966 H       
  45 H45            1.1526    -4.5051    -2.7011 H       
  46 H46            1.0170    -2.0481    -2.6134 H       
@<TRIPOS>BOND
   1    1    2 1
   2    1    5 1
   3    1    9 am
   4    2    3 1
   5    2    6 1
   6    2   19 1
   7    3    4 1
   8    3   26 1
   9    3   27 1
  10    4    5 1
  11    4   28 1
  12    4   29 1
  13    5   30 1
  14    5   31 1
  15    6    7 2
  16    6    8 1
  17    8   32 1
  18    9   10 2
  19    9   11 1
  20   11   12 1
  21   12   13 1
  22   12   33 1
  23   12   34 1
  24   13   14 ar
  25   13   18 ar
  26   14   15 ar
  27   14   35 1
  28   15   16 ar
  29   15   36 1
  30   16   17 ar
  31   16   37 1
  32   17   18 ar
  33   17   38 1
  34   18   39 1
  35   19   20 1
  36   19   40 1
  37   19   41 1
  38   20   21 ar
  39   20   25 ar
  40   21   22 ar
  41   21   42 1
  42   22   23 ar
  43   22   43 1
  44   23   24 ar
  45   23   44 1
  46   24   25 ar
  47   24   45 1
  48   25   46 1

#	End of record

