#	Name: ASD01150415
#	Creating user name:	WinNT
#	Creation time:	15. 06. 2019 19:04

#	Modifying user name:	WinNT
#	Modification time:	15. 06. 2019 19:04

#	Program:	/corina/corina34_cracker 3.40 0067  02.08.2006

@<TRIPOS>MOLECULE
ASD01150415
  50   53    0    0    0
SMALL
NO_CHARGES


@<TRIPOS>ATOM
   1 C1             0.6932     1.3867     0.7006 C.ar    
   2 C2             0.6505     0.0174     0.8773 C.ar    
   3 C3             1.3988    -0.8111     0.0629 C.ar    
   4 C4             2.1966    -0.2689    -0.9366 C.ar    
   5 C5             2.2415     1.1061    -1.1172 C.ar    
   6 C6             1.4890     1.9354    -0.2978 C.ar    
   7 N7             1.5314     3.3229    -0.4766 N.am    
   8 C8             0.3823     4.0172    -0.5555 C.2     
   9 N9             0.3894     5.3525    -0.7268 N.am    
  10 C10            1.5609     6.0148    -0.8226 C.2     
  11 C11            2.8157     5.2628    -0.7372 C.2     
  12 N12            2.7694     3.9704    -0.5652 N.2     
  13 O13            1.5753     7.2219    -0.9783 O.2     
  14 C14           -0.8756     6.0867    -0.8098 C.3     
  15 O15           -0.6790     3.4300    -0.4712 O.2     
  16 C16           -1.3476     6.4326     0.5789 C.ar    
  17 C17           -0.5609     6.1624     1.6559 C.ar    
  18 C18           -0.9805     6.4751     2.9477 C.ar    
  19 C19           -2.1893     7.0599     3.1695 C.ar    
  20 C20           -3.0292     7.3545     2.0819 C.ar    
  21 C21           -2.6002     7.0414     0.7680 C.ar    
  22 N22            2.9547    -1.1086    -1.7603 N.am    
  23 C23            2.4778    -2.3199    -2.1091 C.2     
  24 O24            1.3544    -2.6449    -1.7879 O.2     
  25 C25            3.3406    -3.2706    -2.8984 C.3     
  26 C26            4.1408     5.9730    -0.8410 C.3     
  27 C27           -4.2841     7.9581     2.2715 C.ar    
  28 C28           -5.0707     8.2287     1.1944 C.ar    
  29 C29           -4.6511     7.9159    -0.0974 C.ar    
  30 C30           -3.4401     7.3360    -0.3196 C.ar    
  31 H31            0.1041     2.0312     1.3361 H       
  32 H32            0.0313    -0.4066     1.6540 H       
  33 H33            1.3635    -1.8813     0.2039 H       
  34 H34            2.8613     1.5301    -1.8934 H       
  35 H35           -0.7273     7.0026    -1.3819 H       
  36 H36           -1.6237     5.4668    -1.3040 H       
  37 H37            0.4030     5.6983     1.5075 H       
  38 H38           -0.3370     6.2497     3.7853 H       
  39 H39           -2.5016     7.2959     4.1761 H       
  40 H40            3.8234    -0.8188    -2.0801 H       
  41 H41            3.9134    -3.8955    -2.2133 H       
  42 H42            2.7084    -3.9014    -3.5233 H       
  43 H43            4.0240    -2.7024    -3.5295 H       
  44 H44            4.4697     6.2756     0.1532 H       
  45 H45            4.8794     5.3018    -1.2794 H       
  46 H46            4.0318     6.8552    -1.4718 H       
  47 H47           -4.6227     8.2054     3.2668 H       
  48 H48           -6.0347     8.6926     1.3428 H       
  49 H49           -5.2949     8.1406    -0.9348 H       
  50 H50           -3.1280     7.0995    -1.3261 H       
@<TRIPOS>BOND
   1    1    2 ar
   2    1    6 ar
   3    1   31 1
   4    2    3 ar
   5    2   32 1
   6    3    4 ar
   7    3   33 1
   8    4    5 ar
   9    4   22 1
  10    5    6 ar
  11    5   34 1
  12    6    7 1
  13    7    8 am
  14    7   12 1
  15    8    9 am
  16    8   15 2
  17    9   10 am
  18    9   14 1
  19   10   11 1
  20   10   13 2
  21   11   12 2
  22   11   26 1
  23   14   16 1
  24   14   35 1
  25   14   36 1
  26   16   17 ar
  27   16   21 ar
  28   17   18 ar
  29   17   37 1
  30   18   19 ar
  31   18   38 1
  32   19   20 ar
  33   19   39 1
  34   20   21 ar
  35   20   27 ar
  36   21   30 ar
  37   22   23 am
  38   22   40 1
  39   23   24 2
  40   23   25 1
  41   25   41 1
  42   25   42 1
  43   25   43 1
  44   26   44 1
  45   26   45 1
  46   26   46 1
  47   27   28 ar
  48   27   47 1
  49   28   29 ar
  50   28   48 1
  51   29   30 ar
  52   29   49 1
  53   30   50 1

#	End of record

