#	Name: ASD01813754
#	Creating user name:	WinNT
#	Creation time:	15. 06. 2019 19:31

#	Modifying user name:	WinNT
#	Modification time:	15. 06. 2019 19:31

#	Program:	/corina/corina34_cracker 3.40 0067  02.08.2006

@<TRIPOS>MOLECULE
ASD01813754
  42   45    0    0    0
SMALL
NO_CHARGES


@<TRIPOS>ATOM
   1 C1            -0.0168     1.3835    -0.0515 C.ar    
   2 C2             0.0020    -0.0038    -0.0585 C.ar    
   3 C3             1.1977    -0.6920    -0.0535 C.ar    
   4 C4             2.4035     0.0084    -0.0412 C.ar    
   5 C5             2.3796     1.4130    -0.0341 C.ar    
   6 C6             1.1627     2.0947    -0.0393 C.ar    
   7 N7             3.6056    -0.6668    -0.0350 N.pl3   
   8 C8             4.7891    -0.0410    -0.0219 C.2     
   9 C9             4.8932     1.3356    -0.0135 C.2     
  10 C10            3.6619     2.1417    -0.0212 C.2     
  11 O11            3.7002     3.3596    -0.0146 O.2     
  12 C12            6.2115     1.9851     0.0019 C.2     
  13 O13            6.3001     3.3302     0.0100 O.3     
  14 O14            7.2220     1.3094     0.0074 O.2     
  15 C15            3.5871    -2.1316    -0.0427 C.3     
  16 C16            3.4445    -2.6248    -1.4595 C.ar    
  17 N17            2.2468    -2.7326    -2.0026 N.ar    
  18 N18            2.0734    -3.1469    -3.2049 N.ar    
  19 C19            3.0907    -3.4951    -3.9831 C.ar    
  20 C20            4.3960    -3.4133    -3.4917 C.ar    
  21 C21            4.5731    -2.9595    -2.1936 C.ar    
  22 F22            1.2003    -2.0429    -0.0600 F       
  23 C23            2.8430    -3.9691    -5.3669 C.ar    
  24 C24            1.5409    -4.0505    -5.8551 C.ar    
  25 C25            1.3163    -4.4930    -7.1456 C.ar    
  26 C26            2.3837    -4.8545    -7.9511 C.ar    
  27 C27            3.6777    -4.7748    -7.4694 C.ar    
  28 C28            3.9128    -4.3289    -6.1847 C.ar    
  29 F29            0.0544    -4.5733    -7.6214 F       
  30 H30           -0.9607     1.9082    -0.0601 H       
  31 H31           -0.9292    -0.5507    -0.0677 H       
  32 H32            1.1454     3.1746    -0.0342 H       
  33 H33            5.6925    -0.6328    -0.0173 H       
  34 H34            7.1887     3.7116     0.0201 H       
  35 H35            4.5175    -2.5090     0.3815 H       
  36 H36            2.7459    -2.4875     0.5522 H       
  37 H37            5.2405    -3.6910    -4.1049 H       
  38 H38            5.5604    -2.8764    -1.7638 H       
  39 H39            0.7087    -3.7690    -5.2269 H       
  40 H40            2.2048    -5.2001    -8.9586 H       
  41 H41            4.5063    -5.0579    -8.1015 H       
  42 H42            4.9240    -4.2674    -5.8104 H       
@<TRIPOS>BOND
   1    1    2 ar
   2    1    6 ar
   3    1   30 1
   4    2    3 ar
   5    2   31 1
   6    3   22 1
   7    3    4 ar
   8    4    5 ar
   9    4    7 1
  10    5    6 ar
  11    5   10 1
  12    6   32 1
  13    7    8 1
  14    7   15 1
  15    8    9 2
  16    8   33 1
  17    9   10 1
  18    9   12 1
  19   10   11 2
  20   12   13 1
  21   12   14 2
  22   13   34 1
  23   15   16 1
  24   15   35 1
  25   15   36 1
  26   16   17 ar
  27   16   21 ar
  28   17   18 ar
  29   18   19 ar
  30   19   20 ar
  31   19   23 1
  32   20   21 ar
  33   20   37 1
  34   21   38 1
  35   23   24 ar
  36   23   28 ar
  37   24   25 ar
  38   24   39 1
  39   25   26 ar
  40   25   29 1
  41   26   27 ar
  42   26   40 1
  43   27   28 ar
  44   27   41 1
  45   28   42 1

#	End of record

