#	Name: ASD01912192
#	Creating user name:	WinNT
#	Creation time:	15. 06. 2019 19:59

#	Modifying user name:	WinNT
#	Modification time:	15. 06. 2019 19:59

#	Program:	/corina/corina34_cracker 3.40 0067  02.08.2006

@<TRIPOS>MOLECULE
ASD01912192
  41   44    0    0    0
SMALL
NO_CHARGES


@<TRIPOS>ATOM
   1 C1            -0.0183     1.5107     0.0189 C.3     
   2 C2            -0.0110     0.0037     0.0162 C.2     
   3 O3             0.5367    -0.7860    -0.9128 O.3     
   4 N4             0.3693    -1.9508    -0.6191 N.2     
   5 C5            -0.2900    -2.0401     0.5066 C.2     
   6 N6            -0.5352    -0.7784     0.9267 N.2     
   7 C7            -0.6897    -3.2919     1.1966 C.ar    
   8 C8            -0.3620    -4.5289     0.6460 C.ar    
   9 C9            -0.7358    -5.6900     1.2922 C.ar    
  10 C10           -1.4349    -5.6268     2.4838 C.ar    
  11 C11           -1.7630    -4.4010     3.0350 C.ar    
  12 C12           -1.3892    -3.2340     2.4004 C.ar    
  13 C13            1.4227     2.0710    -0.0076 C.3     
  14 C14            1.3276     3.2974    -0.8882 C.2     
  15 N15            0.1863     3.2697    -1.5978 N.am    
  16 C16           -0.5955     2.0631    -1.3032 C.3     
  17 O17            2.1598     4.1780    -0.9451 O.2     
  18 C18           -0.2063     4.2641    -2.5013 C.ar    
  19 C19            0.5422     5.4269    -2.6239 C.ar    
  20 C20            0.1521     6.4073    -3.5169 C.ar    
  21 C21           -0.9840     6.2297    -4.2885 C.ar    
  22 C22           -1.7313     5.0715    -4.1671 C.ar    
  23 C23           -1.3421     4.0865    -3.2807 C.ar    
  24 C24           -0.3820    -7.0289     0.6979 C.3     
  25 Cl25           1.0867     7.8621    -3.6709 Cl      
  26 Cl26          -1.4719     7.4624    -5.4093 Cl      
  27 H27           -0.5703     1.8945     0.8768 H       
  28 H28            0.1833    -4.5793    -0.2848 H       
  29 H29           -1.7261    -6.5377     2.9858 H       
  30 H30           -2.3093    -4.3574     3.9656 H       
  31 H31           -1.6455    -2.2776     2.8317 H       
  32 H32            1.7434     2.3466     0.9970 H       
  33 H33            2.1075     1.3422    -0.4412 H       
  34 H34           -0.4754     1.3314    -2.1021 H       
  35 H35           -1.6482     2.3169    -1.1783 H       
  36 H36            1.4281     5.5655    -2.0219 H       
  37 H37           -2.6174     4.9356    -4.7694 H       
  38 H38           -1.9260     3.1829    -3.1866 H       
  39 H39            0.5900    -7.3480     1.0742 H       
  40 H40           -1.1385    -7.7620     0.9777 H       
  41 H41           -0.3415    -6.9450    -0.3881 H       
@<TRIPOS>BOND
   1    1    2 1
   2    1   13 1
   3    1   16 1
   4    1   27 1
   5    2    3 1
   6    2    6 2
   7    3    4 1
   8    4    5 2
   9    5    6 1
  10    5    7 1
  11    7    8 ar
  12    7   12 ar
  13    8    9 ar
  14    8   28 1
  15    9   10 ar
  16    9   24 1
  17   10   11 ar
  18   10   29 1
  19   11   12 ar
  20   11   30 1
  21   12   31 1
  22   13   14 1
  23   13   32 1
  24   13   33 1
  25   14   15 am
  26   14   17 2
  27   15   16 1
  28   15   18 1
  29   16   34 1
  30   16   35 1
  31   18   19 ar
  32   18   23 ar
  33   19   20 ar
  34   19   36 1
  35   20   21 ar
  36   20   25 1
  37   21   22 ar
  38   21   26 1
  39   22   23 ar
  40   22   37 1
  41   23   38 1
  42   24   39 1
  43   24   40 1
  44   24   41 1

#	End of record

