#	Name: ASD07301303
#	Creating user name:	WinNT
#	Creation time:	15. 06. 2019 21:11

#	Modifying user name:	WinNT
#	Modification time:	15. 06. 2019 21:11

#	Program:	/corina/corina34_cracker 3.40 0067  02.08.2006

@<TRIPOS>MOLECULE
ASD07301303
  48   50    0    0    0
SMALL
NO_CHARGES


@<TRIPOS>ATOM
   1 C1            -0.0818     1.6898    -0.2652 C.2     
   2 C2            -0.1359     0.2210    -0.2055 C.2     
   3 C3             1.0985    -0.4693    -0.0971 C.2     
   4 C4             2.2340     0.2682    -0.0564 C.2     
   5 N5             2.1861     1.6211    -0.1172 N.pl3   
   6 N6             1.0926     2.2828    -0.2158 N.2     
   7 O7            -1.1990    -0.3789    -0.2471 O.2     
   8 C8             3.3901     2.3311    -0.0700 C.ar    
   9 C9             3.5926     3.3020     0.9125 C.ar    
  10 C10            4.7900     4.0020     0.9532 C.ar    
  11 C11            5.7771     3.7371     0.0231 C.ar    
  12 C12            5.5764     2.7752    -0.9504 C.ar    
  13 C13            4.3897     2.0690    -0.9962 C.ar    
  14 N14            2.5934     3.5681     1.8510 N.3     
  15 C15            2.0907     4.9424     1.7100 C.3     
  16 C16            0.9589     5.1717     2.7152 C.3     
  17 O17            1.4391     4.9036     4.0354 O.3     
  18 C18            1.9357     3.5736     4.2084 C.3     
  19 C19            3.0773     3.3281     3.2183 C.3     
  20 C20           -1.3222     2.4847    -0.3845 C.2     
  21 C21           -1.2549     3.8946    -0.4408 C.2     
  22 C22           -2.3895     4.6217    -0.5499 C.2     
  23 O23           -2.4027     1.9239    -0.4344 O.2     
  24 N24           -2.3244     5.9844    -0.6043 N.pl3   
  25 C25           -1.0252     6.6587    -0.5444 C.3     
  26 C26           -3.5538     6.7723    -0.7226 C.3     
  27 H27            1.1320    -1.5477    -0.0482 H       
  28 H28            3.1896    -0.2283     0.0259 H       
  29 H29            4.9504     4.7541     1.7115 H       
  30 H30            6.7083     4.2832     0.0562 H       
  31 H31            6.3516     2.5726    -1.6746 H       
  32 H32            4.2386     1.3156    -1.7551 H       
  33 H33            2.8989     5.6474     1.9048 H       
  34 H34            1.7140     5.0901     0.6978 H       
  35 H35            0.6216     6.2063     2.6537 H       
  36 H36            0.1286     4.5033     2.4872 H       
  37 H37            2.3048     3.4525     5.2268 H       
  38 H38            1.1338     2.8588     4.0237 H       
  39 H39            3.4209     2.2975     3.3071 H       
  40 H40            3.9013     4.0073     3.4372 H       
  41 H41           -0.2971     4.3917    -0.3966 H       
  42 H42           -3.3472     4.1247    -0.5941 H       
  43 H43           -0.6328     6.7817    -1.5538 H       
  44 H44           -1.1448     7.6372    -0.0793 H       
  45 H45           -0.3314     6.0589     0.0446 H       
  46 H46           -4.4132     6.1024    -0.7526 H       
  47 H47           -3.6423     7.4386     0.1355 H       
  48 H48           -3.5207     7.3620    -1.6387 H       
@<TRIPOS>BOND
   1    1    2 1
   2    1    6 2
   3    1   20 1
   4    2    3 1
   5    2    7 2
   6    3    4 2
   7    3   27 1
   8    4    5 1
   9    4   28 1
  10    5    6 1
  11    5    8 1
  12    8    9 ar
  13    8   13 ar
  14    9   10 ar
  15    9   14 1
  16   10   11 ar
  17   10   29 1
  18   11   12 ar
  19   11   30 1
  20   12   13 ar
  21   12   31 1
  22   13   32 1
  23   14   15 1
  24   14   19 1
  25   15   16 1
  26   15   33 1
  27   15   34 1
  28   16   17 1
  29   16   35 1
  30   16   36 1
  31   17   18 1
  32   18   19 1
  33   18   37 1
  34   18   38 1
  35   19   39 1
  36   19   40 1
  37   20   21 1
  38   20   23 2
  39   21   22 2
  40   21   41 1
  41   22   24 1
  42   22   42 1
  43   24   25 1
  44   24   26 1
  45   25   43 1
  46   25   44 1
  47   25   45 1
  48   26   46 1
  49   26   47 1
  50   26   48 1

#	End of record

