#	Name: ASD05170002
#	Creating user name:	WinNT
#	Creation time:	15. 06. 2019 20:57

#	Modifying user name:	WinNT
#	Modification time:	15. 06. 2019 20:57

#	Program:	/corina/corina34_cracker 3.40 0067  02.08.2006

@<TRIPOS>MOLECULE
ASD05170002
  46   47    0    0    0
SMALL
NO_CHARGES


@<TRIPOS>ATOM
   1 C1            -0.0167     1.3789     0.0096 C.ar    
   2 C2             0.0021    -0.0041     0.0020 C.ar    
   3 C3            -1.1869    -0.7115     0.0101 C.ar    
   4 C4            -2.3937    -0.0354     0.0257 C.ar    
   5 C5            -2.4118     1.3469     0.0333 C.ar    
   6 C6            -1.2244     2.0541     0.0306 C.ar    
   7 C7            -3.6888    -0.8058     0.0339 C.3     
   8 N8            -3.9734    -1.2706     1.3981 N.3     
   9 C9            -5.2316    -2.0274     1.4447 C.3     
  10 Cl10           1.4747     2.2674     0.0002 Cl      
  11 Cl11          -1.1643    -2.4473    -0.0001 Cl      
  12 C12           -5.2247    -3.0054     2.6377 C.3     
  13 C13           -6.4087    -2.5642     3.5248 C.3     
  14 N14           -7.3255    -1.8515     2.5982 N.3     
  15 C15           -6.4190    -1.0777     1.7113 C.3     
  16 C16           -8.1774    -1.0098     3.2930 C.ar    
  17 N17           -7.6645    -0.0367     4.0312 N.ar    
  18 C18           -8.4500     0.7853     4.7072 C.ar    
  19 C19           -9.8249     0.6184     4.6358 C.ar    
  20 C20          -10.3276    -0.4105     3.8536 C.ar    
  21 N21           -9.4860    -1.1936     3.1992 N.ar    
  22 Br22         -10.9884     1.7680     5.5848 Br      
  23 H23            0.9444    -0.5315    -0.0105 H       
  24 H24           -3.3541     1.8743     0.0451 H       
  25 H25           -1.2392     3.1340     0.0369 H       
  26 H26           -4.4981    -0.1596    -0.3060 H       
  27 H27           -3.6051    -1.6644    -0.6324 H       
  28 H28           -3.2078    -1.8191     1.7603 H       
  29 H29           -5.3810    -2.5701     0.5112 H       
  30 H30           -5.3726    -4.0278     2.2900 H       
  31 H31           -4.2878    -2.9238     3.1887 H       
  32 H32           -6.9048    -3.4334     3.9566 H       
  33 H33           -6.0648    -1.8920     4.3110 H       
  34 H34           -6.0768    -0.1729     2.2137 H       
  35 H35           -6.9229    -0.8277     0.7777 H       
  36 H36           -8.0259     1.5766     5.3076 H       
  37 H37          -11.3933    -0.5678     3.7764 H       
  38 C38            7.7614    11.2623    12.0251 C.3     
  39 S39            7.7860     9.4485    12.0151 S.o2    
  40 O40            8.6287     8.9555    13.0476 O.2     
  41 O41            6.4747     8.9330    11.8310 O.2     
  42 O42            8.5158     9.0856    10.7297 O.3     
  43 H43            8.7840    11.6396    12.0173 H       
  44 H44            7.2342    11.6234    11.1420 H       
  45 H45            7.2512    11.6138    12.9219 H       
  46 H46            8.6076     8.1340    10.5848 H       
@<TRIPOS>BOND
   1    1    2 ar
   2    1   10 1
   3    1    6 ar
   4    2    3 ar
   5    2   23 1
   6    3    4 ar
   7    3   11 1
   8    4    5 ar
   9    4    7 1
  10    5    6 ar
  11    5   24 1
  12    6   25 1
  13    7    8 1
  14    7   26 1
  15    7   27 1
  16    8    9 1
  17    8   28 1
  18    9   12 1
  19    9   15 1
  20    9   29 1
  21   12   13 1
  22   12   30 1
  23   12   31 1
  24   13   14 1
  25   13   32 1
  26   13   33 1
  27   14   15 1
  28   14   16 1
  29   15   34 1
  30   15   35 1
  31   16   17 ar
  32   16   21 ar
  33   17   18 ar
  34   18   19 ar
  35   18   36 1
  36   19   20 ar
  37   19   22 1
  38   20   21 ar
  39   20   37 1
  40   38   39 1
  41   38   43 1
  42   38   44 1
  43   38   45 1
  44   39   40 2
  45   39   41 2
  46   39   42 1
  47   42   46 1

#	End of record

