#	Name: ASD01913822
#	Creating user name:	WinNT
#	Creation time:	15. 06. 2019 20:02

#	Modifying user name:	WinNT
#	Modification time:	15. 06. 2019 20:02

#	Program:	/corina/corina34_cracker 3.40 0067  02.08.2006

@<TRIPOS>MOLECULE
ASD01913822
  41   43    0    0    0
SMALL
NO_CHARGES


@<TRIPOS>ATOM
   1 C1            -0.0228     1.4277    -0.0312 C.ar    
   2 C2            -0.0018    -0.0041    -0.0268 C.1     
   3 C3             0.0154    -1.1780    -0.0233 C.1     
   4 C4             0.0363    -2.6098    -0.0189 C.ar    
   5 C5            -1.1340    -3.3384     0.2416 C.ar    
   6 C6             0.1560    -5.3344    -0.0280 C.ar    
   7 N7             1.2426    -4.6189    -0.2766 N.ar    
   8 C8             1.2208    -3.3022    -0.2796 C.ar    
   9 C9            -1.0632    -4.7169     0.2348 C.ar    
  10 C10            1.1418     2.1548    -0.2905 C.ar    
  11 N11            1.1216     3.4714    -0.2943 N.ar    
  12 C12            0.0168     4.1523    -0.0573 C.ar    
  13 C13           -1.1781     3.5068     0.2076 C.ar    
  14 C14           -1.2132     2.1242     0.2189 C.ar    
  15 N15            0.2331    -6.7250    -0.0369 N.am    
  16 C16           -0.8140    -7.5604    -0.0322 C.2     
  17 N17           -0.4748    -8.8562    -0.0430 N.am    
  18 C18            0.9911    -8.9718    -0.0572 C.3     
  19 C19            1.4768    -7.5093    -0.0595 C.3     
  20 O20           -1.9677    -7.1772    -0.0189 O.2     
  21 C21           -1.4149    -9.9797    -0.0410 C.3     
  22 C22            1.4841    -9.7050     1.1919 C.3     
  23 C23            1.4609    -9.6901    -1.3238 C.3     
  24 H24           -2.0670    -2.8331     0.4429 H       
  25 H25            2.1274    -2.7527    -0.4860 H       
  26 H26           -1.9442    -5.3098     0.4316 H       
  27 H27            2.0661     1.6327    -0.4890 H       
  28 H28            0.0456     5.2318    -0.0700 H       
  29 H29           -2.0751     4.0768     0.3999 H       
  30 H30           -2.1323     1.5949     0.4224 H       
  31 H31            2.0524    -7.2986    -0.9608 H       
  32 H32            2.0695    -7.3016     0.8314 H       
  33 H33           -2.4362    -9.5990    -0.0297 H       
  34 H34           -1.2619   -10.5831    -0.9358 H       
  35 H35           -1.2461   -10.5931     0.8441 H       
  36 H36            1.0714   -10.7137     1.2077 H       
  37 H37            2.5727    -9.7581     1.1761 H       
  38 H38            1.1595    -9.1656     2.0817 H       
  39 H39            1.1200    -9.1402    -2.2010 H       
  40 H40            2.5496    -9.7432    -1.3287 H       
  41 H41            1.0478   -10.6986    -1.3440 H       
@<TRIPOS>BOND
   1    1    2 1
   2    1   10 ar
   3    1   14 ar
   4    2    3 3
   5    3    4 1
   6    4    5 ar
   7    4    8 ar
   8    5    9 ar
   9    5   24 1
  10    6    7 ar
  11    6   15 1
  12    6    9 ar
  13    7    8 ar
  14    8   25 1
  15    9   26 1
  16   10   11 ar
  17   10   27 1
  18   11   12 ar
  19   12   13 ar
  20   12   28 1
  21   13   14 ar
  22   13   29 1
  23   14   30 1
  24   15   16 am
  25   15   19 1
  26   16   17 am
  27   16   20 2
  28   17   18 1
  29   17   21 1
  30   18   19 1
  31   18   22 1
  32   18   23 1
  33   19   31 1
  34   19   32 1
  35   21   33 1
  36   21   34 1
  37   21   35 1
  38   22   36 1
  39   22   37 1
  40   22   38 1
  41   23   39 1
  42   23   40 1
  43   23   41 1

#	End of record

