#	Name: ASD03082043
#	Creating user name:	WinNT
#	Creation time:	15. 06. 2019 20:27

#	Modifying user name:	WinNT
#	Modification time:	15. 06. 2019 20:27

#	Program:	/corina/corina34_cracker 3.40 0067  02.08.2006

@<TRIPOS>MOLECULE
ASD03082043
  61   64    0    0    0
SMALL
NO_CHARGES


@<TRIPOS>ATOM
   1 C1             1.0353     0.0700     0.9762 C.3     
   2 C2             1.7127    -1.2731     1.2661 C.3     
   3 N3             2.5543    -1.6359     0.1177 N.am    
   4 C4             3.5526    -0.6695    -0.3598 C.3     
   5 C5             2.8546     0.6669    -0.6315 C.3     
   6 C6             2.1022     1.1096     0.6255 C.3     
   7 C7             3.8987     1.7227    -1.0002 C.3     
   8 O8             4.5329     1.3589    -2.2547 O.3     
   9 C9             5.4837     2.1907    -2.7233 C.2     
  10 C10            6.1710     1.8850    -3.9921 C.ar    
  11 O11            5.7749     3.1926    -2.1008 O.2     
  12 C12            5.9383     0.6726    -4.6423 C.ar    
  13 C13            6.5836     0.3923    -5.8290 C.ar    
  14 C14            7.4634     1.3078    -6.3818 C.ar    
  15 C15            7.7065     2.5125    -5.7524 C.ar    
  16 C16            7.0611     2.8166    -4.5576 C.ar    
  17 C17            7.3190     4.1083    -3.8788 C.ar    
  18 C18            8.6210     4.4712    -3.5361 C.ar    
  19 C19            8.8550     5.6756    -2.9045 C.ar    
  20 C20            7.8009     6.5221    -2.6109 C.ar    
  21 C21            6.5070     6.1674    -2.9485 C.ar    
  22 C22            6.2613     4.9682    -3.5855 C.ar    
  23 C23            2.4135    -2.8327    -0.4859 C.2     
  24 C24            1.3853    -3.8135     0.0160 C.3     
  25 O25            3.1143    -3.1204    -1.4330 O.2     
  26 C26            1.4316    -5.0825    -0.8375 C.3     
  27 C27            0.4034    -6.0632    -0.3355 C.ar    
  28 C28           -0.8799    -6.0426    -0.8489 C.ar    
  29 C29           -1.8231    -6.9422    -0.3884 C.ar    
  30 C30           -1.4828    -7.8628     0.5850 C.ar    
  31 C31           -0.1992    -7.8840     1.0977 C.ar    
  32 C32            0.7452    -6.9873     0.6341 C.ar    
  33 H33            0.3477    -0.0428     0.1380 H       
  34 H34            0.4843     0.3973     1.8579 H       
  35 H35            2.3314    -1.1851     2.1592 H       
  36 H36            0.9533    -2.0399     1.4193 H       
  37 H37            4.3213    -0.5322     0.4007 H       
  38 H38            4.0071    -1.0379    -1.2795 H       
  39 H39            2.1499     0.5485    -1.4546 H       
  40 H40            1.6249     2.0723     0.4427 H       
  41 H41            2.8038     1.2039     1.4543 H       
  42 H42            3.4128     2.6926    -1.1065 H       
  43 H43            4.6524     1.7781    -0.2147 H       
  44 H44            5.2537    -0.0461    -4.2167 H       
  45 H45            6.4017    -0.5471    -6.3298 H       
  46 H46            7.9631     1.0778    -7.3113 H       
  47 H47            8.3947     3.2208    -6.1897 H       
  48 H48            9.4446     3.8109    -3.7641 H       
  49 H49            9.8629     5.9578    -2.6385 H       
  50 H50            7.9888     7.4633    -2.1159 H       
  51 H51            5.6881     6.8322    -2.7165 H       
  52 H52            5.2508     4.6924    -3.8485 H       
  53 H53            1.6005    -4.0660     1.0543 H       
  54 H54            0.3935    -3.3664    -0.0512 H       
  55 H55            1.2165    -4.8300    -1.8758 H       
  56 H56            2.4234    -5.5296    -0.7703 H       
  57 H57           -1.1458    -5.3233    -1.6094 H       
  58 H58           -2.8259    -6.9256    -0.7890 H       
  59 H59           -2.2198    -8.5652     0.9453 H       
  60 H60            0.0666    -8.6031     1.8585 H       
  61 H61            1.7480    -7.0039     1.0347 H       
@<TRIPOS>BOND
   1    1    2 1
   2    1    6 1
   3    1   33 1
   4    1   34 1
   5    2    3 1
   6    2   35 1
   7    2   36 1
   8    3    4 1
   9    3   23 am
  10    4    5 1
  11    4   37 1
  12    4   38 1
  13    5    6 1
  14    5    7 1
  15    5   39 1
  16    6   40 1
  17    6   41 1
  18    7    8 1
  19    7   42 1
  20    7   43 1
  21    8    9 1
  22    9   10 1
  23    9   11 2
  24   10   12 ar
  25   10   16 ar
  26   12   13 ar
  27   12   44 1
  28   13   14 ar
  29   13   45 1
  30   14   15 ar
  31   14   46 1
  32   15   16 ar
  33   15   47 1
  34   16   17 1
  35   17   18 ar
  36   17   22 ar
  37   18   19 ar
  38   18   48 1
  39   19   20 ar
  40   19   49 1
  41   20   21 ar
  42   20   50 1
  43   21   22 ar
  44   21   51 1
  45   22   52 1
  46   23   24 1
  47   23   25 2
  48   24   26 1
  49   24   53 1
  50   24   54 1
  51   26   27 1
  52   26   55 1
  53   26   56 1
  54   27   28 ar
  55   27   32 ar
  56   28   29 ar
  57   28   57 1
  58   29   30 ar
  59   29   58 1
  60   30   31 ar
  61   30   59 1
  62   31   32 ar
  63   31   60 1
  64   32   61 1

#	End of record

