#	Name: ASD08150348
#	Creating user name:	WinNT
#	Creation time:	15. 06. 2019 21:15

#	Modifying user name:	WinNT
#	Modification time:	15. 06. 2019 21:15

#	Program:	/corina/corina34_cracker 3.40 0067  02.08.2006

@<TRIPOS>MOLECULE
ASD08150348
  76   82    0    0    0
SMALL
NO_CHARGES


@<TRIPOS>ATOM
   1 N1             0.0880     3.0917    -0.7097 N.am    
   2 C2             0.8373     3.6038    -1.7052 C.2     
   3 C3             2.1707     3.1876    -1.8950 C.2     
   4 C4             2.7203     2.2591    -1.0713 C.2     
   5 C5             1.9349     1.7186    -0.0226 C.ar    
   6 C6             2.4562     0.7535     0.8601 C.ar    
   7 N7             1.7294     0.2566     1.8267 N.ar    
   8 C8             0.4581     0.6316     2.0343 C.ar    
   9 C9            -0.1486     1.5981     1.1947 C.ar    
  10 C10            0.6107     2.1547     0.1387 C.ar    
  11 C11           -1.4744     1.9814     1.4189 C.ar    
  12 C12           -2.1826     1.4096     2.4635 C.ar    
  13 C13           -1.5753     0.4541     3.2904 C.ar    
  14 C14           -0.2867     0.0712     3.0850 C.ar    
  15 O15            0.3556     4.4382    -2.4524 O.2     
  16 C16           -3.5893     1.8105     2.7083 C.ar    
  17 C17           -1.2331     3.5259    -0.5387 C.ar    
  18 C18           -1.5080     4.6023     0.2953 C.ar    
  19 C19           -2.8092     5.0300     0.4638 C.ar    
  20 C20           -3.8443     4.3840    -0.2006 C.ar    
  21 C21           -3.5693     3.3077    -1.0345 C.ar    
  22 C22           -2.2670     2.8836    -1.2073 C.ar    
  23 N23           -5.1626     4.8169    -0.0297 N.3     
  24 C24           -5.5720     5.7037    -1.1269 C.3     
  25 C25           -5.3377     5.4681     1.2754 C.3     
  26 C26           -6.8245     5.7637     1.4996 C.3     
  27 N27           -7.3269     6.5306     0.3495 N.am    
  28 C28           -7.0684     6.0090    -1.0012 C.3     
  29 C29           -4.1500     2.8886     2.0051 C.ar    
  30 N30           -5.3885     3.2641     2.2004 N.ar    
  31 C31           -6.1812     2.6405     3.0785 C.ar    
  32 C32           -5.6882     1.5424     3.8276 C.ar    
  33 C33           -4.3627     1.1192     3.6298 C.ar    
  34 C34           -7.5089     3.0588     3.2749 C.ar    
  35 C35           -8.2968     2.4089     4.1744 C.ar    
  36 C36           -7.8101     1.3300     4.9100 C.ar    
  37 C37           -6.5302     0.8954     4.7480 C.ar    
  38 C38           -8.0066     7.6806     0.5285 C.2     
  39 C39           -8.1544     8.2610     1.9114 C.3     
  40 O40           -8.4993     8.2483    -0.4233 O.2     
  41 C41           -8.5260     9.7415     1.8061 C.3     
  42 C42           -9.2552     7.5112     2.6642 C.3     
  43 C43           -4.6920     2.6065    -1.7549 C.3     
  44 F44           -4.1928     1.4725    -2.4046 F       
  45 F45           -5.6704     2.2222    -0.8317 F       
  46 F46           -5.2550     3.4738    -2.6972 F       
  47 H47            2.7567     3.6086    -2.6985 H       
  48 H48            3.7412     1.9366    -1.2132 H       
  49 H49            3.4751     0.4172     0.7362 H       
  50 H50           -1.9428     2.7179     0.7828 H       
  51 H51           -2.1384     0.0164     4.1014 H       
  52 H52            0.1653    -0.6665     3.7315 H       
  53 H53           -0.7033     5.1042     0.8120 H       
  54 H54           -3.0228     5.8667     1.1125 H       
  55 H55           -2.0527     2.0495    -1.8590 H       
  56 H56           -5.0053     6.6333    -1.0739 H       
  57 H57           -5.3796     5.2139    -2.0815 H       
  58 H58           -4.9755     4.8074     2.0631 H       
  59 H59           -4.7744     6.4010     1.2949 H       
  60 H60           -7.3755     4.8270     1.5839 H       
  61 H61           -6.9482     6.3480     2.4114 H       
  62 H62           -7.3533     6.7554    -1.7427 H       
  63 H63           -7.6428     5.0959    -1.1572 H       
  64 H64           -3.5448     3.4209     1.2862 H       
  65 H65           -3.9560     0.2863     4.1840 H       
  66 H66           -7.9024     3.8935     2.7139 H       
  67 H67           -9.3159     2.7349     4.3208 H       
  68 H68           -8.4565     0.8324     5.6178 H       
  69 H69           -6.1641     0.0580     5.3235 H       
  70 H70           -7.2123     8.1604     2.4503 H       
  71 H71           -9.4681     9.8421     1.2672 H       
  72 H72           -8.6329    10.1613     2.8063 H       
  73 H73           -7.7418    10.2757     1.2697 H       
  74 H74          -10.1764     7.5377     2.0821 H       
  75 H75           -8.9510     6.4756     2.8160 H       
  76 H76           -9.4225     7.9861     3.6310 H       
@<TRIPOS>BOND
   1    1    2 am
   2    1   10 1
   3    1   17 1
   4    2    3 1
   5    2   15 2
   6    3    4 2
   7    3   47 1
   8    4    5 1
   9    4   48 1
  10    5    6 ar
  11    5   10 ar
  12    6    7 ar
  13    6   49 1
  14    7    8 ar
  15    8    9 ar
  16    8   14 ar
  17    9   10 ar
  18    9   11 ar
  19   11   12 ar
  20   11   50 1
  21   12   13 ar
  22   12   16 1
  23   13   14 ar
  24   13   51 1
  25   14   52 1
  26   16   29 ar
  27   16   33 ar
  28   17   18 ar
  29   17   22 ar
  30   18   19 ar
  31   18   53 1
  32   19   20 ar
  33   19   54 1
  34   20   21 ar
  35   20   23 1
  36   21   22 ar
  37   21   43 1
  38   22   55 1
  39   23   24 1
  40   23   25 1
  41   24   28 1
  42   24   56 1
  43   24   57 1
  44   25   26 1
  45   25   58 1
  46   25   59 1
  47   26   27 1
  48   26   60 1
  49   26   61 1
  50   27   28 1
  51   27   38 am
  52   28   62 1
  53   28   63 1
  54   29   30 ar
  55   29   64 1
  56   30   31 ar
  57   31   32 ar
  58   31   34 ar
  59   32   33 ar
  60   32   37 ar
  61   33   65 1
  62   34   35 ar
  63   34   66 1
  64   35   36 ar
  65   35   67 1
  66   36   37 ar
  67   36   68 1
  68   37   69 1
  69   38   39 1
  70   38   40 2
  71   39   41 1
  72   39   42 1
  73   39   70 1
  74   41   71 1
  75   41   72 1
  76   41   73 1
  77   42   74 1
  78   42   75 1
  79   42   76 1
  80   43   44 1
  81   43   45 1
  82   43   46 1

#	End of record

