#	Name: ASD02562063
#	Creating user name:	WinNT
#	Creation time:	15. 06. 2019 20:25

#	Modifying user name:	WinNT
#	Modification time:	15. 06. 2019 20:25

#	Program:	/corina/corina34_cracker 3.40 0067  02.08.2006

@<TRIPOS>MOLECULE
ASD02562063
  43   46    0    0    0
SMALL
NO_CHARGES


@<TRIPOS>ATOM
   1 C1             0.1551     1.3717     1.2129 C.2     
   2 C2             0.1699    -0.0336     1.1603 C.2     
   3 C3             1.2939    -0.6903     0.8103 C.2     
   4 N4             2.4359    -0.0013     0.5013 N.pl3   
   5 C5             2.4516     1.3741     0.5439 C.2     
   6 C6             1.2804     2.0712     0.9091 C.2     
   7 C7             3.6847    -0.4109     0.1234 C.2     
   8 C8             4.4405     0.7281    -0.0577 C.2     
   9 N9             3.6605     1.7922     0.2061 N.2     
  10 N10            4.1124    -1.7290    -0.0458 N.3     
  11 C11            5.8633     0.7724    -0.4703 C.ar    
  12 C12            2.9891    -2.6672     0.0802 C.3     
  13 C13            3.3294    -3.9705    -0.6454 C.3     
  14 C14            2.1595    -4.9477    -0.5141 C.3     
  15 C15            1.9026    -5.2399     0.9656 C.3     
  16 C16            1.5623    -3.9366     1.6912 C.3     
  17 C17            2.7322    -2.9594     1.5599 C.3     
  18 C18            6.5119     1.9998    -0.6172 C.ar    
  19 C19            7.8388     2.0359    -1.0021 C.ar    
  20 C20            8.5246     0.8573    -1.2424 C.ar    
  21 C21            7.8842    -0.3652    -1.0983 C.ar    
  22 C22            6.5600    -0.4120    -0.7074 C.ar    
  23 F23            5.8436     3.1505    -0.3838 F       
  24 F24            9.8215     0.8977    -1.6190 F       
  25 F25            8.5585    -1.5118    -1.3346 F       
  26 H26           -0.7490     1.8938     1.4895 H       
  27 H27           -0.7239    -0.5896     1.4020 H       
  28 H28            1.2936    -1.7697     0.7737 H       
  29 H29            1.2782     3.1505     0.9472 H       
  30 H30            4.5835    -1.8456    -0.9304 H       
  31 H31            2.0963    -2.2267    -0.3635 H       
  32 H32            3.5125    -3.7624    -1.6995 H       
  33 H33            4.2223    -4.4110    -0.2016 H       
  34 H34            1.2666    -4.5073    -0.9579 H       
  35 H35            2.4019    -5.8762    -1.0311 H       
  36 H36            1.0691    -5.9361     1.0590 H       
  37 H37            2.7954    -5.6804     1.4093 H       
  38 H38            0.6694    -3.4961     1.2474 H       
  39 H39            1.3792    -4.1448     2.7453 H       
  40 H40            3.6250    -3.3999     2.0037 H       
  41 H41            2.4898    -2.0309     2.0769 H       
  42 H42            8.3415     2.9850    -1.1160 H       
  43 H43            6.0624    -1.3639    -0.5951 H       
@<TRIPOS>BOND
   1    1    2 1
   2    1    6 2
   3    1   26 1
   4    2    3 2
   5    2   27 1
   6    3    4 1
   7    3   28 1
   8    4    5 1
   9    4    7 1
  10    5    6 1
  11    5    9 2
  12    6   29 1
  13    7    8 2
  14    7   10 1
  15    8    9 1
  16    8   11 1
  17   10   12 1
  18   10   30 1
  19   11   18 ar
  20   11   22 ar
  21   12   13 1
  22   12   17 1
  23   12   31 1
  24   13   14 1
  25   13   32 1
  26   13   33 1
  27   14   15 1
  28   14   34 1
  29   14   35 1
  30   15   16 1
  31   15   36 1
  32   15   37 1
  33   16   17 1
  34   16   38 1
  35   16   39 1
  36   17   40 1
  37   17   41 1
  38   18   19 ar
  39   18   23 1
  40   19   20 ar
  41   19   42 1
  42   20   21 ar
  43   20   24 1
  44   21   22 ar
  45   21   25 1
  46   22   43 1

#	End of record

