#	Name: ASD01412100
#	Creating user name:	WinNT
#	Creation time:	15. 06. 2019 19:20

#	Modifying user name:	WinNT
#	Modification time:	15. 06. 2019 19:20

#	Program:	/corina/corina34_cracker 3.40 0067  02.08.2006

@<TRIPOS>MOLECULE
ASD01412100
  84   90    0    0    0
SMALL
NO_CHARGES


@<TRIPOS>ATOM
   1 C1             1.3208     3.8640    -2.6492 C.ar    
   2 C2             0.6795     2.5965    -2.6727 C.ar    
   3 C3            -0.5636     2.7794    -3.2974 C.2     
   4 C4            -0.6668     4.0963    -3.6324 C.2     
   5 N5             0.4786     4.7564    -3.2518 N.pl3   
   6 C6            -1.8321     4.7281    -4.2863 C.ar    
   7 C7            -1.6866     5.7639    -5.2099 C.ar    
   8 N8            -0.4630     6.2153    -5.6678 N.am    
   9 C9             0.6527     6.4306    -4.9728 C.2     
  10 C10            0.7345     6.1838    -3.4894 C.3     
  11 C11           -1.5971     1.7126    -3.5521 C.3     
  12 C12           -0.9950     0.6204    -4.4383 C.3     
  13 C13           -2.0443    -0.4627    -4.6970 C.3     
  14 C14           -2.4866    -1.0726    -3.3653 C.3     
  15 C15           -3.0888     0.0197    -2.4791 C.3     
  16 C16           -2.0395     1.1027    -2.2205 C.3     
  17 C17            2.5813     4.0151    -2.0865 C.ar    
  18 C18            3.1773     2.8662    -1.5538 C.ar    
  19 C19            2.5382     1.6214    -1.5830 C.ar    
  20 C20            1.2962     1.4563    -2.1318 C.ar    
  21 C21            4.5174     2.9701    -0.9449 C.2     
  22 N22            5.1087     1.8756    -0.4264 N.am    
  23 O23            5.0882     4.0432    -0.9109 O.2     
  24 C24            6.4845     1.9526     0.0711 C.3     
  25 C25            6.5700     2.9475     1.1998 C.2     
  26 C26            6.9501     0.5636     0.5547 C.3     
  27 C27            7.7093    -0.0265    -0.6596 C.3     
  28 C28            8.4444     1.2089    -1.2363 C.3     
  29 C29            7.4345     2.3641    -1.0673 C.3     
  30 N30            5.5706     3.0328     2.1000 N.am    
  31 O31            7.5381     3.6714     1.2980 O.2     
  32 C32            5.5790     4.0472     3.0572 C.ar    
  33 C33            5.0409     3.8145     4.3194 C.ar    
  34 C34            5.0473     4.8123     5.2670 C.ar    
  35 C35            5.5964     6.0631     4.9598 C.ar    
  36 C36            6.1366     6.2927     3.6886 C.ar    
  37 C37            6.1305     5.2873     2.7490 C.ar    
  38 C38            5.6052     7.1319     5.9682 C.2     
  39 C39            6.1355     8.3381     5.6695 C.2     
  40 C40            6.1439     9.3693     6.6425 C.2     
  41 O41            5.6737     9.1680     7.7462 O.2     
  42 O42            6.6736    10.5739     6.3442 O.3     
  43 N43           -3.0476     4.2843    -3.9614 N.ar    
  44 C44           -4.1426     4.8163    -4.4568 C.ar    
  45 C45           -4.0765     5.8757    -5.3447 C.ar    
  46 C46           -2.8394     6.3605    -5.7300 C.ar    
  47 O47            1.6357     6.8392    -5.5541 O.2     
  48 H48           -0.4098     6.3987    -6.6188 H       
  49 H49           -0.0155     6.7839    -2.9742 H       
  50 H50            1.7287     6.4448    -3.1268 H       
  51 H51           -2.4585     2.1537    -4.0537 H       
  52 H52           -0.6799     1.0549    -5.3870 H       
  53 H53           -0.1336     0.1793    -3.9367 H       
  54 H54           -2.9057    -0.0216    -5.1985 H       
  55 H55           -1.6153    -1.2408    -5.3283 H       
  56 H56           -3.2342    -1.8441    -3.5496 H       
  57 H57           -1.6252    -1.5136    -2.8637 H       
  58 H58           -3.9502     0.4607    -2.9807 H       
  59 H59           -3.4039    -0.4149    -1.5304 H       
  60 H60           -1.1781     0.6617    -1.7189 H       
  61 H61           -2.4685     1.8808    -1.5891 H       
  62 H62            3.0782     4.9737    -2.0614 H       
  63 H63            3.0413     0.7647    -1.1593 H       
  64 H64            0.8109     0.4916    -2.1483 H       
  65 H65            4.6234     1.0369    -0.3826 H       
  66 H66            7.6175     0.6617     1.4109 H       
  67 H67            6.0923    -0.0595     0.8078 H       
  68 H68            8.4228    -0.7850    -0.3376 H       
  69 H69            7.0113    -0.4363    -1.3896 H       
  70 H70            9.3531     1.4112    -0.6694 H       
  71 H71            8.6772     1.0567    -2.2903 H       
  72 H72            6.8718     2.5062    -1.9900 H       
  73 H73            7.9586     3.2828    -0.8039 H       
  74 H74            4.8456     2.3887     2.0823 H       
  75 H75            4.6173     2.8495     4.5554 H       
  76 H76            4.6292     4.6310     6.2462 H       
  77 H77            6.5608     7.2561     3.4471 H       
  78 H78            6.5473     5.4633     1.7683 H       
  79 H79            5.1877     6.9532     6.9481 H       
  80 H80            6.5529     8.5168     4.6896 H       
  81 H81            6.6338    11.2117     7.0700 H       
  82 H82           -5.1055     4.4217    -4.1677 H       
  83 H83           -4.9814     6.3193    -5.7332 H       
  84 H84           -2.7652     7.1870    -6.4212 H       
@<TRIPOS>BOND
   1    1    2 ar
   2    1   17 ar
   3    1    5 1
   4    2    3 1
   5    2   20 ar
   6    3    4 2
   7    3   11 1
   8    4    5 1
   9    4    6 1
  10    5   10 1
  11    6    7 ar
  12    6   43 ar
  13    7    8 1
  14    7   46 ar
  15    8    9 am
  16    8   48 1
  17    9   10 1
  18    9   47 2
  19   10   49 1
  20   10   50 1
  21   11   12 1
  22   11   16 1
  23   11   51 1
  24   12   13 1
  25   12   52 1
  26   12   53 1
  27   13   14 1
  28   13   54 1
  29   13   55 1
  30   14   15 1
  31   14   56 1
  32   14   57 1
  33   15   16 1
  34   15   58 1
  35   15   59 1
  36   16   60 1
  37   16   61 1
  38   17   18 ar
  39   17   62 1
  40   18   19 ar
  41   18   21 1
  42   19   20 ar
  43   19   63 1
  44   20   64 1
  45   21   22 am
  46   21   23 2
  47   22   24 1
  48   22   65 1
  49   24   25 1
  50   24   26 1
  51   24   29 1
  52   25   30 am
  53   25   31 2
  54   26   27 1
  55   26   66 1
  56   26   67 1
  57   27   28 1
  58   27   68 1
  59   27   69 1
  60   28   29 1
  61   28   70 1
  62   28   71 1
  63   29   72 1
  64   29   73 1
  65   30   32 1
  66   30   74 1
  67   32   33 ar
  68   32   37 ar
  69   33   34 ar
  70   33   75 1
  71   34   35 ar
  72   34   76 1
  73   35   36 ar
  74   35   38 1
  75   36   37 ar
  76   36   77 1
  77   37   78 1
  78   38   39 2
  79   38   79 1
  80   39   40 1
  81   39   80 1
  82   40   41 2
  83   40   42 1
  84   42   81 1
  85   43   44 ar
  86   44   45 ar
  87   44   82 1
  88   45   46 ar
  89   45   83 1
  90   46   84 1

#	End of record

