#	Name: ASD06600014
#	Creating user name:	WinNT
#	Creation time:	15. 06. 2019 21:06

#	Modifying user name:	WinNT
#	Modification time:	15. 06. 2019 21:06

#	Program:	/corina/corina34_cracker 3.40 0067  02.08.2006

@<TRIPOS>MOLECULE
ASD06600014
 295  298    0    0    0
SMALL
NO_CHARGES


@<TRIPOS>ATOM
   1 C1             0.2404    -3.7170    -5.7038 C.2     
   2 O2             0.1526    -4.8911    -5.4127 O.2     
   3 N3             2.6273    -4.1338    -5.8383 N.am    
   4 C4             1.5906    -3.1087    -5.9829 C.3     
   5 C5             1.6158    -2.5556    -7.4092 C.3     
   6 C6             2.9203    -1.8397    -7.6474 C.2     
   7 C7             3.7901    -2.0905    -8.6444 C.2     
   8 N8             4.8327    -1.2172    -8.4896 N.pl3   
   9 C9             4.5634    -0.4625    -7.4026 C.2     
  10 N10            3.4157    -0.8370    -6.9070 N.2     
  11 C11           -3.2468    -2.7549    -6.2300 C.2     
  12 O12           -2.9382    -1.7882    -6.8942 O.2     
  13 N13           -0.8702    -2.9575    -5.7830 N.am    
  14 C14           -2.1834    -3.5502    -5.5175 C.3     
  15 C15           -2.4560    -3.5325    -4.0121 C.3     
  16 C16           -6.8931    -2.5212    -6.1134 C.2     
  17 O17           -7.0031    -3.3494    -5.2343 O.2     
  18 N18           -4.5409    -3.1179    -6.1292 N.am    
  19 C19           -5.5747    -2.3448    -6.8218 C.3     
  20 C20           -5.7006    -2.8390    -8.2643 C.3     
  21 C21           -4.4051    -2.5394    -9.0210 C.3     
  22 C22           -5.9550    -4.3477    -8.2661 C.3     
  23 C23          -10.3447    -1.5014    -6.7529 C.2     
  24 O24          -10.0587    -1.0038    -7.8214 O.2     
  25 N25           -7.9499    -1.7585    -6.4568 N.am    
  26 C26           -9.2554    -1.9932    -5.8350 C.3     
  27 C27           -9.3300    -1.2397    -4.5055 C.3     
  28 C28           -8.3216    -1.8151    -3.5448 C.2     
  29 C29           -7.3608    -1.1265    -2.8995 C.2     
  30 N30           -6.6741    -2.0287    -2.1326 N.pl3   
  31 C31           -7.2395    -3.2381    -2.3362 C.2     
  32 N32           -8.2273    -3.1018    -3.1780 N.2     
  33 C33          -13.9209    -0.7987    -6.4689 C.2     
  34 O34          -13.9105    -0.9432    -5.2648 O.2     
  35 N35          -11.6368    -1.6145    -6.3866 N.am    
  36 C36          -12.6958    -1.1364    -7.2789 C.3     
  37 C37          -13.0401    -2.2290    -8.2931 C.3     
  38 C38          -17.4432    -0.1144    -7.1676 C.2     
  39 O39          -17.3317    -0.4331    -8.3324 O.2     
  40 N40          -15.0281    -0.3361    -7.0826 N.am    
  41 C41          -16.2190    -0.0079    -6.2951 C.3     
  42 C42          -16.0980     1.4197    -5.7584 C.3     
  43 C43          -14.9460     1.4962    -4.7897 C.ar    
  44 C44          -13.6790     1.8074    -5.2474 C.ar    
  45 C45          -12.6213     1.8777    -4.3616 C.ar    
  46 C46          -12.8313     1.6362    -3.0117 C.ar    
  47 O47          -11.7925     1.7052    -2.1382 O.3     
  48 C48          -14.1037     1.3246    -2.5549 C.ar    
  49 C49          -15.1591     1.2606    -3.4440 C.ar    
  50 C50          -20.9419     0.9215    -6.9471 C.2     
  51 O51          -20.7443     1.5715    -5.9425 O.2     
  52 N52          -18.6618     0.1445    -6.6534 N.am    
  53 C53          -19.8518     0.0410    -7.5015 C.3     
  54 C54          -20.3336    -1.4109    -7.5292 C.3     
  55 C55          -19.2768    -2.2862    -8.2060 C.3     
  56 C56          -19.7585    -3.7381    -8.2337 C.3     
  57 N57          -18.7466    -4.5761    -8.8817 N.pl3   
  58 C58          -18.9602    -5.9269    -9.0224 C.2     
  59 N59          -18.0599    -6.6725    -9.5990 N.2     
  60 N60          -20.1235    -6.4913    -8.5550 N.pl3   
  61 C61          -24.5387     1.3165    -7.4674 C.2     
  62 O62          -24.6037     0.3242    -8.1618 O.2     
  63 N63          -22.1365     0.9866    -7.5678 N.am    
  64 C64          -23.1963     1.8426    -7.0289 C.3     
  65 C65          -23.0131     3.2697    -7.5490 C.3     
  66 C66          -21.7269     3.8399    -7.0092 C.2     
  67 C67          -20.7225     4.3588    -7.7410 C.2     
  68 N68          -19.7550     4.7582    -6.8589 N.pl3   
  69 C69          -20.2022     4.4694    -5.6178 C.2     
  70 N70          -21.3842     3.9250    -5.7152 N.2     
  71 C71          -27.9753     2.5616    -7.5179 C.2     
  72 O72          -27.6339     3.6800    -7.1960 O.2     
  73 N73          -25.6669     1.9486    -7.0880 N.am    
  74 C74          -26.9718     1.4372    -7.5143 C.3     
  75 C75          -27.4327     0.3455    -6.5466 C.3     
  76 C76          -26.4811    -0.8494    -6.6351 C.3     
  77 C77          -26.9420    -1.9411    -5.6673 C.3     
  78 N78          -26.0308    -3.0852    -5.7520 N.pl3   
  79 C79          -26.2455    -4.1944    -4.9687 C.2     
  80 N80          -25.4348    -5.2123    -5.0440 N.2     
  81 N81          -27.3152    -4.2300    -4.1058 N.pl3   
  82 C82          -31.6141     2.8536    -7.7085 C.2     
  83 O83          -31.7721     1.6566    -7.5932 O.2     
  84 N84          -29.2519     2.3243    -7.8788 N.am    
  85 C85          -30.2274     3.4173    -7.8823 C.3     
  86 C86          -30.1456     4.1697    -9.2120 C.3     
  87 C87          -28.7787     4.8466    -9.3317 C.3     
  88 C88          -28.6969     5.5990   -10.6615 C.3     
  89 N89          -27.3881     6.2471   -10.7761 N.pl3   
  90 C90          -27.0826     6.9860   -11.8945 C.2     
  91 N91          -27.9573     7.1098   -12.8528 N.2     
  92 N92          -25.8543     7.5943   -12.0021 N.pl3   
  93 C93          -35.0506     4.0051    -8.0784 C.2     
  94 O94          -34.7699     5.1327    -8.4258 O.2     
  95 N95          -32.6788     3.6795    -7.6814 N.am    
  96 C96          -34.0140     3.1446    -7.4032 C.3     
  97 C97          -34.2581     3.1425    -5.8928 C.3     
  98 C98          -35.5820     2.4374    -5.5912 C.3     
  99 C99          -35.4628     0.9543    -5.9477 C.3     
 100 C100         -35.9081     2.5797    -4.1031 C.3     
 101 C101         -38.6587     3.9048    -8.6570 C.2     
 102 O102         -38.8239     3.0358    -7.8272 O.2     
 103 N103         -36.2897     3.5217    -8.2963 N.am    
 104 C104         -37.2631     4.3147    -9.0511 C.3     
 105 C105         -37.0649     4.0744   -10.5491 C.3     
 106 C106         -35.6942     4.6051   -10.9737 C.3     
 107 C107         -35.4439     4.2542   -12.4418 C.3     
 108 C108         -35.6592     6.1247   -10.7995 C.3     
 109 C109         -42.0319     4.4173    -9.9691 C.2     
 110 O110         -41.6180     4.9228   -10.9909 O.2     
 111 N111         -39.7232     4.5039    -9.2265 N.am    
 112 C112         -41.0799     4.1054    -8.8433 C.3     
 113 C113         -41.5026     4.8745    -7.5900 C.3     
 114 O114         -41.5894     6.2683    -7.8932 O.3     
 115 C115         -44.7161     5.8733   -10.8313 C.2     
 116 O116         -44.3040     6.5714    -9.9354 O.2     
 117 N117         -43.3434     4.1346    -9.8404 N.am    
 118 C118         -44.2689     4.4379   -10.9348 C.3     
 119 C119         -45.4869     3.5164   -10.8429 C.3     
 120 C120         -46.3930     3.7464   -12.0541 C.3     
 121 C121         -47.5450     2.7400   -12.0276 C.3     
 122 C122         -46.2625     3.8228    -9.5602 C.3     
 123 O123         -45.5722     6.3764   -11.7346 O.3     
 124 C124           3.8917    -3.7759    -5.5392 C.2     
 125 O125           4.1714    -2.6052    -5.3896 O.2     
 126 C126          21.8766    -7.6465    -1.9681 C.3     
 127 C127          20.7939    -6.5760    -2.1191 C.3     
 128 C128          19.4596    -7.2442    -2.4570 C.3     
 129 C129          18.3770    -6.1737    -2.6080 C.3     
 130 C130          17.0427    -6.8419    -2.9459 C.3     
 131 C131          15.9601    -5.7714    -3.0969 C.3     
 132 C132          14.6258    -6.4395    -3.4348 C.3     
 133 C133          13.5431    -5.3691    -3.5858 C.3     
 134 C134          12.2089    -6.0372    -3.9237 C.3     
 135 C135          11.1262    -4.9667    -4.0747 C.3     
 136 C136           9.7919    -5.6349    -4.4126 C.3     
 137 C137           8.7093    -4.5644    -4.5636 C.3     
 138 C138           7.3750    -5.2326    -4.9015 C.3     
 139 C139           6.2924    -4.1621    -5.0525 C.3     
 140 C140           4.9581    -4.8303    -5.3904 C.3     
 141 H141           2.4036    -5.0700    -5.9579 H       
 142 H142           1.7780    -2.3002    -5.2763 H       
 143 H143           1.5170    -3.3768    -8.1192 H       
 144 H144           0.7888    -1.8582    -7.5431 H       
 145 H145           3.6854    -2.8375    -9.4174 H       
 146 H146           5.6181    -1.1525    -9.0550 H       
 147 H147           5.1918     0.3236    -7.0107 H       
 148 H148          -0.8001    -2.0185    -6.0158 H       
 149 H149          -2.1971    -4.5791    -5.8772 H       
 150 H150          -3.4331    -3.9735    -3.8146 H       
 151 H151          -1.6869    -4.1078    -3.4968 H       
 152 H152          -2.4424    -2.5036    -3.6525 H       
 153 H153          -4.7877    -3.8911    -5.5980 H       
 154 H154          -5.3005    -1.2898    -6.8218 H       
 155 H155          -6.5321    -2.3298    -8.7515 H       
 156 H156          -3.5939    -3.1356    -8.6031 H       
 157 H157          -4.5336    -2.7885   -10.0744 H       
 158 H158          -4.1646    -1.4806    -8.9247 H       
 159 H159          -6.8780    -4.5612    -7.7269 H       
 160 H160          -6.0447    -4.6998    -9.2937 H       
 161 H161          -5.1235    -4.8570    -7.7788 H       
 162 H162          -7.8461    -1.0542    -7.1157 H       
 163 H163          -9.3858    -3.0604    -5.6556 H       
 164 H164          -9.1116    -0.1850    -4.6730 H       
 165 H165         -10.3308    -1.3413    -4.0859 H       
 166 H166          -7.1688    -0.0663    -2.9731 H       
 167 H167          -5.9218    -1.8355    -1.5516 H       
 168 H168          -6.9284    -4.1640    -1.8754 H       
 169 H169         -11.8656    -2.0124    -5.5321 H       
 170 H170         -12.3522    -0.2464    -7.8063 H       
 171 H171         -13.8280    -1.8733    -8.9570 H       
 172 H172         -12.1540    -2.4732    -8.8789 H       
 173 H173         -13.3836    -3.1189    -7.7657 H       
 174 H174         -15.0364    -0.2206    -8.0456 H       
 175 H175         -16.3060    -0.7037    -5.4606 H       
 176 H176         -15.9221     2.1058    -6.5869 H       
 177 H177         -17.0208     1.6955    -5.2480 H       
 178 H178         -13.5160     1.9954    -6.2984 H       
 179 H179         -11.6316     2.1202    -4.7196 H       
 180 H180         -11.6565     2.5836    -1.7574 H       
 181 H181         -14.2697     1.1358    -1.5046 H       
 182 H182         -16.1506     1.0224    -3.0883 H       
 183 H183         -18.7509     0.3994    -5.7217 H       
 184 H184         -19.6055     0.3614    -8.5138 H       
 185 H185         -20.4952    -1.7597    -6.5092 H       
 186 H186         -21.2681    -1.4731    -8.0867 H       
 187 H187         -19.1152    -1.9375    -9.2260 H       
 188 H188         -18.3422    -2.2240    -7.6484 H       
 189 H189         -19.9201    -4.0868    -7.2137 H       
 190 H190         -20.6931    -3.8002    -8.7912 H       
 191 H191         -17.9259    -4.1779    -9.2115 H       
 192 H192         -18.2106    -7.6256    -9.6983 H       
 193 H193         -20.7935    -5.9364    -8.1259 H       
 194 H194         -20.2742    -7.4444    -8.6542 H       
 195 H195         -22.2946     0.4667    -8.3713 H       
 196 H196         -23.1444     1.8432    -5.9401 H       
 197 H197         -22.9761     3.2575    -8.6383 H       
 198 H198         -23.8499     3.8863    -7.2208 H       
 199 H199         -20.6870     4.4431    -8.8171 H       
 200 H200         -18.9067     5.1716    -7.0833 H       
 201 H201         -19.6713     4.6610    -4.6970 H       
 202 H202         -25.6148     2.7422    -6.5327 H       
 203 H203         -26.8887     1.0213    -8.5184 H       
 204 H204         -27.4306     0.7371    -5.5294 H       
 205 H205         -28.4410     0.0273    -6.8113 H       
 206 H206         -26.4832    -1.2410    -7.6523 H       
 207 H207         -25.4728    -0.5312    -6.3703 H       
 208 H208         -26.9398    -1.5495    -4.6501 H       
 209 H209         -27.9503    -2.2593    -5.9320 H       
 210 H210         -25.2761    -3.0601    -6.3608 H       
 211 H211         -25.5863    -5.9949    -4.4913 H       
 212 H212         -27.9185    -3.4725    -4.0497 H       
 213 H213         -27.4667    -5.0126    -3.5531 H       
 214 H214         -29.5249     1.4298    -8.1362 H       
 215 H215         -30.0084     4.1023    -7.0632 H       
 216 H216         -30.2767     3.4675   -10.0354 H       
 217 H217         -30.9300     4.9255    -9.2507 H       
 218 H218         -28.6477     5.5487    -8.5084 H       
 219 H219         -27.9943     4.0908    -9.2931 H       
 220 H220         -28.8280     4.8968   -11.4848 H       
 221 H221         -29.4814     6.3548   -10.7001 H       
 222 H222         -26.7372     6.1550   -10.0629 H       
 223 H223         -27.7417     7.6311   -13.6419 H       
 224 H224         -25.2034     7.5022   -11.2889 H       
 225 H225         -25.6388     8.1156   -12.7912 H       
 226 H226         -32.5610     4.6282    -7.8460 H       
 227 H227         -34.0837     2.1256    -7.7840 H       
 228 H228         -33.4443     2.6162    -5.3940 H       
 229 H229         -34.3026     4.1695    -5.5306 H       
 230 H230         -36.3779     2.8904    -6.1824 H       
 231 H231         -36.3720     0.4340    -5.6463 H       
 232 H232         -35.3238     0.8493    -7.0236 H       
 233 H233         -34.6078     0.5231    -5.4270 H       
 234 H234         -35.9930     3.6362    -3.8491 H       
 235 H235         -36.8513     2.0774    -3.8882 H       
 236 H236         -35.1123     2.1267    -3.5119 H       
 237 H237         -36.5369     2.6487    -7.9534 H       
 238 H238         -37.1192     5.3724    -8.8307 H       
 239 H239         -37.1209     3.0057   -10.7562 H       
 240 H240         -37.8443     4.5938   -11.1066 H       
 241 H241         -34.9208     4.1505   -10.3546 H       
 242 H242         -36.2172     4.7088   -13.0609 H       
 243 H243         -34.4673     4.6323   -12.7443 H       
 244 H244         -35.4687     3.1716   -12.5659 H       
 245 H245         -35.8376     6.3747    -9.7536 H       
 246 H246         -34.6827     6.5028   -11.1020 H       
 247 H247         -36.4326     6.5793   -11.4186 H       
 248 H248         -39.5911     5.1989    -9.8901 H       
 249 H249         -41.0996     3.0353    -8.6368 H       
 250 H250         -42.4749     4.5146    -7.2535 H       
 251 H251         -40.7652     4.7192    -6.8025 H       
 252 H252         -41.8531     6.8183    -7.1428 H       
 253 H253         -43.6745     3.7304    -9.0232 H       
 254 H254         -43.7664     4.2818   -11.8894 H       
 255 H255         -45.1564     2.4778   -10.8284 H       
 256 H256         -46.7944     4.7592   -12.0204 H       
 257 H257         -45.8162     3.6145   -12.9696 H       
 258 H258         -47.1435     1.7272   -12.0613 H       
 259 H259         -48.1217     2.8720   -11.1121 H       
 260 H260         -48.1905     2.9039   -12.8905 H       
 261 H261         -47.1302     3.1664    -9.4947 H       
 262 H262         -45.6170     3.6590    -8.6973 H       
 263 H263         -46.5930     4.8614    -9.5747 H       
 264 H264         -45.8301     7.3021   -11.6269 H       
 265 H265          22.8271    -7.1705    -1.7274 H       
 266 H266          21.6004    -8.3321    -1.1670 H       
 267 H267          21.9735    -8.1996    -2.9024 H       
 268 H268          20.6970    -6.0229    -1.1849 H       
 269 H269          21.0701    -5.8904    -2.9203 H       
 270 H270          19.5565    -7.7973    -3.3913 H       
 271 H271          19.1835    -7.9298    -1.6559 H       
 272 H272          18.2801    -5.6206    -1.6738 H       
 273 H273          18.6532    -5.4881    -3.4092 H       
 274 H274          17.1396    -7.3949    -3.8802 H       
 275 H275          16.7665    -7.5275    -2.1448 H       
 276 H276          15.8631    -5.2183    -2.1627 H       
 277 H277          16.2362    -5.0858    -3.8981 H       
 278 H278          14.7227    -6.9926    -4.3691 H       
 279 H279          14.3496    -7.1251    -2.6337 H       
 280 H280          13.4462    -4.8160    -2.6516 H       
 281 H281          13.8193    -4.6835    -4.3870 H       
 282 H282          12.3058    -6.5903    -4.8580 H       
 283 H283          11.9327    -6.7228    -3.1226 H       
 284 H284          11.0293    -4.4137    -3.1405 H       
 285 H285          11.4024    -4.2811    -4.8759 H       
 286 H286           9.8889    -6.1880    -5.3469 H       
 287 H287           9.5158    -6.3205    -3.6115 H       
 288 H288           8.6124    -4.0113    -3.6294 H       
 289 H289           8.9855    -3.8788    -5.3648 H       
 290 H290           7.4719    -5.7857    -5.8357 H       
 291 H291           7.0988    -5.9182    -4.1004 H       
 292 H292           6.1955    -3.6090    -4.1183 H       
 293 H293           6.5685    -3.4765    -5.8537 H       
 294 H294           4.6819    -5.5158    -4.5893 H       
 295 H295           5.0550    -5.3833    -6.3246 H       
@<TRIPOS>BOND
   1    1    2 2
   2    1    4 1
   3    1   13 am
   4    3  124 am
   5    3    4 1
   6    3  141 1
   7    4    5 1
   8    4  142 1
   9    5    6 1
  10    5  143 1
  11    5  144 1
  12    6    7 2
  13    6   10 1
  14    7    8 1
  15    7  145 1
  16    8    9 1
  17    8  146 1
  18    9   10 2
  19    9  147 1
  20   11   12 2
  21   11   14 1
  22   11   18 am
  23   13   14 1
  24   13  148 1
  25   14   15 1
  26   14  149 1
  27   15  150 1
  28   15  151 1
  29   15  152 1
  30   16   17 2
  31   16   19 1
  32   16   25 am
  33   18   19 1
  34   18  153 1
  35   19   20 1
  36   19  154 1
  37   20   21 1
  38   20   22 1
  39   20  155 1
  40   21  156 1
  41   21  157 1
  42   21  158 1
  43   22  159 1
  44   22  160 1
  45   22  161 1
  46   23   24 2
  47   23   26 1
  48   23   35 am
  49   25   26 1
  50   25  162 1
  51   26   27 1
  52   26  163 1
  53   27   28 1
  54   27  164 1
  55   27  165 1
  56   28   29 2
  57   28   32 1
  58   29   30 1
  59   29  166 1
  60   30   31 1
  61   30  167 1
  62   31   32 2
  63   31  168 1
  64   33   34 2
  65   33   36 1
  66   33   40 am
  67   35   36 1
  68   35  169 1
  69   36   37 1
  70   36  170 1
  71   37  171 1
  72   37  172 1
  73   37  173 1
  74   38   39 2
  75   38   41 1
  76   38   52 am
  77   40   41 1
  78   40  174 1
  79   41   42 1
  80   41  175 1
  81   42   43 1
  82   42  176 1
  83   42  177 1
  84   43   44 ar
  85   43   49 ar
  86   44   45 ar
  87   44  178 1
  88   45   46 ar
  89   45  179 1
  90   46   47 1
  91   46   48 ar
  92   47  180 1
  93   48   49 ar
  94   48  181 1
  95   49  182 1
  96   50   51 2
  97   50   53 1
  98   50   63 am
  99   52   53 1
 100   52  183 1
 101   53   54 1
 102   53  184 1
 103   54   55 1
 104   54  185 1
 105   54  186 1
 106   55   56 1
 107   55  187 1
 108   55  188 1
 109   56   57 1
 110   56  189 1
 111   56  190 1
 112   57   58 1
 113   57  191 1
 114   58   59 2
 115   58   60 1
 116   59  192 1
 117   60  193 1
 118   60  194 1
 119   61   62 2
 120   61   64 1
 121   61   73 am
 122   63   64 1
 123   63  195 1
 124   64   65 1
 125   64  196 1
 126   65   66 1
 127   65  197 1
 128   65  198 1
 129   66   67 2
 130   66   70 1
 131   67   68 1
 132   67  199 1
 133   68   69 1
 134   68  200 1
 135   69   70 2
 136   69  201 1
 137   71   72 2
 138   71   74 1
 139   71   84 am
 140   73   74 1
 141   73  202 1
 142   74   75 1
 143   74  203 1
 144   75   76 1
 145   75  204 1
 146   75  205 1
 147   76   77 1
 148   76  206 1
 149   76  207 1
 150   77   78 1
 151   77  208 1
 152   77  209 1
 153   78   79 1
 154   78  210 1
 155   79   80 2
 156   79   81 1
 157   80  211 1
 158   81  212 1
 159   81  213 1
 160   82   83 2
 161   82   85 1
 162   82   95 am
 163   84   85 1
 164   84  214 1
 165   85   86 1
 166   85  215 1
 167   86   87 1
 168   86  216 1
 169   86  217 1
 170   87   88 1
 171   87  218 1
 172   87  219 1
 173   88   89 1
 174   88  220 1
 175   88  221 1
 176   89   90 1
 177   89  222 1
 178   90   91 2
 179   90   92 1
 180   91  223 1
 181   92  224 1
 182   92  225 1
 183   93   94 2
 184   93   96 1
 185   93  103 am
 186   95   96 1
 187   95  226 1
 188   96   97 1
 189   96  227 1
 190   97   98 1
 191   97  228 1
 192   97  229 1
 193   98   99 1
 194   98  100 1
 195   98  230 1
 196   99  231 1
 197   99  232 1
 198   99  233 1
 199  100  234 1
 200  100  235 1
 201  100  236 1
 202  101  102 2
 203  101  104 1
 204  101  111 am
 205  103  104 1
 206  103  237 1
 207  104  105 1
 208  104  238 1
 209  105  106 1
 210  105  239 1
 211  105  240 1
 212  106  107 1
 213  106  108 1
 214  106  241 1
 215  107  242 1
 216  107  243 1
 217  107  244 1
 218  108  245 1
 219  108  246 1
 220  108  247 1
 221  109  110 2
 222  109  112 1
 223  109  117 am
 224  111  112 1
 225  111  248 1
 226  112  113 1
 227  112  249 1
 228  113  114 1
 229  113  250 1
 230  113  251 1
 231  114  252 1
 232  115  116 2
 233  115  118 1
 234  115  123 1
 235  117  118 1
 236  117  253 1
 237  118  119 1
 238  118  254 1
 239  119  120 1
 240  119  122 1
 241  119  255 1
 242  120  121 1
 243  120  256 1
 244  120  257 1
 245  121  258 1
 246  121  259 1
 247  121  260 1
 248  122  261 1
 249  122  262 1
 250  122  263 1
 251  123  264 1
 252  124  125 2
 253  124  140 1
 254  126  127 1
 255  126  265 1
 256  126  266 1
 257  126  267 1
 258  127  128 1
 259  127  268 1
 260  127  269 1
 261  128  129 1
 262  128  270 1
 263  128  271 1
 264  129  130 1
 265  129  272 1
 266  129  273 1
 267  130  131 1
 268  130  274 1
 269  130  275 1
 270  131  132 1
 271  131  276 1
 272  131  277 1
 273  132  133 1
 274  132  278 1
 275  132  279 1
 276  133  134 1
 277  133  280 1
 278  133  281 1
 279  134  135 1
 280  134  282 1
 281  134  283 1
 282  135  136 1
 283  135  284 1
 284  135  285 1
 285  136  137 1
 286  136  286 1
 287  136  287 1
 288  137  138 1
 289  137  288 1
 290  137  289 1
 291  138  139 1
 292  138  290 1
 293  138  291 1
 294  139  140 1
 295  139  292 1
 296  139  293 1
 297  140  294 1
 298  140  295 1

#	End of record

