#	Name: ASD03730871
#	Creating user name:	WinNT
#	Creation time:	15. 06. 2019 20:44

#	Modifying user name:	WinNT
#	Modification time:	15. 06. 2019 20:44

#	Program:	/corina/corina34_cracker 3.40 0067  02.08.2006

@<TRIPOS>MOLECULE
ASD03730871
  73   81    0    0    0
SMALL
NO_CHARGES


@<TRIPOS>ATOM
   1 C1             0.6399     1.3927    -0.1663 C.2     
   2 C2             0.4165    -0.0667    -0.0899 C.ar    
   3 C3             1.4939    -0.9476    -0.1993 C.ar    
   4 C4             1.2786    -2.3081    -0.1268 C.ar    
   5 C5            -0.0021    -2.8004     0.0535 C.ar    
   6 C6            -1.0742    -1.9329     0.1627 C.ar    
   7 C7            -0.8718    -0.5696     0.0976 C.ar    
   8 O8             1.7717     1.8320    -0.2264 O.2     
   9 N9            -0.4114     2.2359    -0.1748 N.am    
  10 C10            2.8891    -0.4133    -0.3967 C.3     
  11 O11            2.4534    -7.3369    -2.2846 O.3     
  12 C12            3.0253    -8.6400    -2.5033 C.3     
  13 O13            4.3139    -8.3560    -3.0792 O.3     
  14 C14            4.6610    -7.1220    -2.6085 C.ar    
  15 C15            3.5164    -6.4955    -2.1209 C.ar    
  16 C16            5.8812    -6.4724    -2.5547 C.ar    
  17 C17            5.9754    -5.1923    -2.0172 C.ar    
  18 C18            4.8236    -4.5734    -1.5409 C.ar    
  19 C19            3.6066    -5.2208    -1.5875 C.ar    
  20 O20            7.0685    -4.3927    -1.8559 O.3     
  21 C21            5.2382    -3.2096    -1.0572 C.3     
  22 C22            6.6373    -3.0318    -1.6624 C.3     
  23 N23            3.8429    -1.5253    -0.3935 N.am    
  24 C24            4.2921    -2.1346    -1.5088 C.2     
  25 C25            5.2601    -3.1170     0.4397 C.ar    
  26 C26            5.9218    -3.8133     1.4264 C.ar    
  27 C27            5.7300    -3.4820     2.7559 C.ar    
  28 C28            4.8719    -2.4505     3.0913 C.ar    
  29 C29            4.2061    -1.7508     2.1067 C.ar    
  30 C30            4.3934    -2.0771     0.7658 C.ar    
  31 O31            3.9913    -1.8668    -2.6529 O.2     
  32 C32           -1.4298     4.3990    -0.6898 C.3     
  33 C33           -0.1895     3.6838    -0.1506 C.3     
  34 C34            0.0749     4.1353     1.2872 C.3     
  35 C35            0.3067     5.6474     1.3125 C.3     
  36 C36           -0.9337     6.3626     0.7733 C.3     
  37 C37           -2.1416     6.0172     1.6465 C.3     
  38 C38           -2.3734     4.5050     1.6212 C.3     
  39 C39           -2.6377     4.0536     0.1834 C.3     
  40 C40           -1.1330     3.7898     2.1604 C.3     
  41 C41           -1.1980     5.9112    -0.6645 C.3     
  42 H42            2.1113    -2.9907    -0.2113 H       
  43 H43           -0.1654    -3.8665     0.1090 H       
  44 H44           -2.0712    -2.3235     0.3033 H       
  45 H45           -1.7090     0.1067     0.1870 H       
  46 H46           -1.3151     1.8841    -0.1970 H       
  47 H47            2.9457     0.1112    -1.3506 H       
  48 H48            3.1320     0.2761     0.4119 H       
  49 H49            3.1369    -9.1727    -1.5588 H       
  50 H50            2.4135    -9.2151    -3.1984 H       
  51 H51            6.7666    -6.9621    -2.9325 H       
  52 H52            2.7217    -4.7322    -1.2072 H       
  53 H53            7.2966    -2.5119    -0.9673 H       
  54 H54            6.5830    -2.5038    -2.6145 H       
  55 H55            6.5913    -4.6185     1.1622 H       
  56 H56            6.2495    -4.0273     3.5300 H       
  57 H57            4.7221    -2.1920     4.1292 H       
  58 H58            3.5372    -0.9469     2.3765 H       
  59 H59           -1.6182     4.0774    -1.7141 H       
  60 H60            0.6711     3.9299    -0.7727 H       
  61 H61            0.9585     3.6257     1.6714 H       
  62 H62            0.4950     5.9690     2.3368 H       
  63 H63            1.1672     5.8935     0.6904 H       
  64 H64           -0.7685     7.4399     0.7913 H       
  65 H65           -1.9533     6.3388     2.6708 H       
  66 H66           -3.0253     6.5267     1.2623 H       
  67 H67           -3.2340     4.2589     2.2433 H       
  68 H68           -3.5214     4.5631    -0.2008 H       
  69 H69           -2.8029     2.9763     0.1654 H       
  70 H70           -1.2982     2.7125     2.1424 H       
  71 H71           -0.9447     4.1114     3.1848 H       
  72 H72           -0.3375     6.1573    -1.2866 H       
  73 H73           -2.0817     6.4207    -1.0487 H       
@<TRIPOS>BOND
   1    1    2 1
   2    1    8 2
   3    1    9 am
   4    2    3 ar
   5    2    7 ar
   6    3    4 ar
   7    3   10 1
   8    4    5 ar
   9    4   42 1
  10    5    6 ar
  11    5   43 1
  12    6    7 ar
  13    6   44 1
  14    7   45 1
  15    9   33 1
  16    9   46 1
  17   10   23 1
  18   10   47 1
  19   10   48 1
  20   11   12 1
  21   11   15 1
  22   12   13 1
  23   12   49 1
  24   12   50 1
  25   13   14 1
  26   14   15 ar
  27   14   16 ar
  28   15   19 ar
  29   16   17 ar
  30   16   51 1
  31   17   18 ar
  32   17   20 1
  33   18   19 ar
  34   18   21 1
  35   19   52 1
  36   20   22 1
  37   21   22 1
  38   21   24 1
  39   21   25 1
  40   22   53 1
  41   22   54 1
  42   23   24 am
  43   23   30 1
  44   24   31 2
  45   25   26 ar
  46   25   30 ar
  47   26   27 ar
  48   26   55 1
  49   27   28 ar
  50   27   56 1
  51   28   29 ar
  52   28   57 1
  53   29   30 ar
  54   29   58 1
  55   32   33 1
  56   32   39 1
  57   32   41 1
  58   32   59 1
  59   33   34 1
  60   33   60 1
  61   34   35 1
  62   34   40 1
  63   34   61 1
  64   35   36 1
  65   35   62 1
  66   35   63 1
  67   36   37 1
  68   36   41 1
  69   36   64 1
  70   37   38 1
  71   37   65 1
  72   37   66 1
  73   38   39 1
  74   38   40 1
  75   38   67 1
  76   39   68 1
  77   39   69 1
  78   40   70 1
  79   40   71 1
  80   41   72 1
  81   41   73 1

#	End of record

