#	Name: ASD01885412
#	Creating user name:	WinNT
#	Creation time:	15. 06. 2019 19:49

#	Modifying user name:	WinNT
#	Modification time:	15. 06. 2019 19:49

#	Program:	/corina/corina34_cracker 3.40 0067  02.08.2006

@<TRIPOS>MOLECULE
ASD01885412
  31   33    0    0    0
SMALL
NO_CHARGES


@<TRIPOS>ATOM
   1 C1            -0.0168     1.3903     0.0097 C.ar    
   2 C2             0.0021    -0.0041     0.0020 C.ar    
   3 N3            -1.1139    -0.7754     0.0172 N.2     
   4 C4            -2.1885    -0.5709    -0.6526 C.2     
   5 C5            -2.3478     0.6302    -1.5473 C.3     
   6 C6            -2.2778     1.8682    -0.6895 C.2     
   7 N7            -1.1820     2.1446     0.0191 N.am    
   8 C8             1.1907     2.0903     0.0019 C.ar    
   9 C9             2.3949     1.4190    -0.0167 C.ar    
  10 C10            2.4175     0.0333    -0.0284 C.ar    
  11 C11            1.2384    -0.6739    -0.0194 C.ar    
  12 C12           -3.2961    -1.5366    -0.5442 C.ar    
  13 N13           -4.4213    -1.3437    -1.2310 N.ar    
  14 C14           -5.4094    -2.2116    -1.1305 C.ar    
  15 C15           -5.2798    -3.3229    -0.3127 C.ar    
  16 N16           -4.1661    -3.5204     0.3722 N.ar    
  17 C17           -3.1684    -2.6622     0.2755 C.ar    
  18 O18           -3.2280     2.6205    -0.6431 O.2     
  19 Br19           4.0175     2.3900    -0.0270 Br      
  20 C20           -6.4132    -4.3101    -0.2031 C.3     
  21 H21           -1.5457     0.6482    -2.2852 H       
  22 H22           -3.3125     0.5870    -2.0528 H       
  23 H23           -1.2007     2.9330     0.5838 H       
  24 H24            1.1817     3.1703     0.0103 H       
  25 H25            3.3615    -0.4912    -0.0447 H       
  26 H26            1.2620    -1.7536    -0.0287 H       
  27 H27           -6.3219    -2.0556    -1.6868 H       
  28 H28           -2.2588    -2.8242     0.8348 H       
  29 H29           -6.2975    -5.0820    -0.9639 H       
  30 H30           -6.4007    -4.7693     0.7853 H       
  31 H31           -7.3612    -3.7929    -0.3516 H       
@<TRIPOS>BOND
   1    1    2 ar
   2    1    8 ar
   3    1    7 1
   4    2    3 1
   5    2   11 ar
   6    3    4 2
   7    4    5 1
   8    4   12 1
   9    5    6 1
  10    5   21 1
  11    5   22 1
  12    6    7 am
  13    6   18 2
  14    7   23 1
  15    8    9 ar
  16    8   24 1
  17    9   10 ar
  18    9   19 1
  19   10   11 ar
  20   10   25 1
  21   11   26 1
  22   12   13 ar
  23   12   17 ar
  24   13   14 ar
  25   14   15 ar
  26   14   27 1
  27   15   16 ar
  28   15   20 1
  29   16   17 ar
  30   17   28 1
  31   20   29 1
  32   20   30 1
  33   20   31 1

#	End of record

