#	Name: ASD01900860
#	Creating user name:	WinNT
#	Creation time:	15. 06. 2019 19:52

#	Modifying user name:	WinNT
#	Modification time:	15. 06. 2019 19:52

#	Program:	/corina/corina34_cracker 3.40 0067  02.08.2006

@<TRIPOS>MOLECULE
ASD01900860
  62   66    0    0    0
SMALL
NO_CHARGES


@<TRIPOS>ATOM
   1 C1             0.1836     0.8258    -0.4015 C.ar    
   2 C2             0.3612    -0.5294    -0.4325 C.ar    
   3 C3             1.6401    -1.0743    -0.5092 C.ar    
   4 C4             2.7551    -0.2480    -0.5459 C.ar    
   5 C5             2.5875     1.1236    -0.5087 C.ar    
   6 C6             1.2917     1.6708    -0.4469 C.ar    
   7 N7             3.6712     1.9945    -0.5241 N.pl3   
   8 C8             3.4939     3.3340    -1.0965 C.3     
   9 N9             2.2246     3.9112    -0.6526 N.am    
  10 C10            1.1476     3.1348    -0.4210 C.2     
  11 C11            2.1273     5.2957    -0.4650 C.ar    
  12 C12            1.4813     6.0811    -1.4106 C.ar    
  13 C13            1.3857     7.4461    -1.2250 C.ar    
  14 C14            1.9348     8.0328    -0.0942 C.ar    
  15 C15            2.5803     7.2489     0.8508 C.ar    
  16 C16            2.6717     5.8830     0.6694 C.ar    
  17 O17            1.8407     9.3770     0.0876 O.3     
  18 O18            0.0650     3.6403    -0.1923 O.2     
  19 O19            1.7979    -2.4217    -0.5479 O.3     
  20 C20            2.4286     9.9138     1.2744 C.3     
  21 C21            4.6482     4.2333    -0.6442 C.3     
  22 C22            3.5037     3.2363    -2.6246 C.3     
  23 C23            3.3886     4.6410    -3.2207 C.3     
  24 N24            4.5129     5.4641    -2.7577 N.3     
  25 C25            4.4996     5.6098    -1.2966 C.3     
  26 C26            4.5114     6.7765    -3.4177 C.3     
  27 C27            5.6239     7.6231    -2.8550 C.ar    
  28 C28            6.9104     7.4855    -3.3422 C.ar    
  29 C29            7.9324     8.2608    -2.8277 C.ar    
  30 C30            7.6685     9.1761    -1.8236 C.ar    
  31 C31            6.3783     9.3141    -1.3350 C.ar    
  32 C32            5.3560     8.5402    -1.8563 C.ar    
  33 F33            6.1183    10.2070    -0.3550 F       
  34 C34            0.6102    -3.2154    -0.5063 C.3     
  35 F35            8.6670     9.9340    -1.3199 F       
  36 H36           -0.8120     1.2405    -0.3466 H       
  37 H37           -0.4979    -1.1829    -0.3967 H       
  38 H38            3.7461    -0.6736    -0.6028 H       
  39 H39            4.5291     1.7215    -0.1632 H       
  40 H40            1.0540     5.6245    -2.2911 H       
  41 H41            0.8836     8.0571    -1.9605 H       
  42 H42            3.0076     7.7063     1.7309 H       
  43 H43            3.1704     5.2722     1.4074 H       
  44 H44            1.9558     9.4662     2.1486 H       
  45 H45            3.4955     9.6910     1.2842 H       
  46 H46            2.2828    10.9938     1.2955 H       
  47 H47            4.6234     4.3398     0.4403 H       
  48 H48            5.5963     3.7880    -0.9456 H       
  49 H49            4.4354     2.7763    -2.9540 H       
  50 H50            2.6606     2.6300    -2.9560 H       
  51 H51            3.4094     4.5767    -4.3086 H       
  52 H52            2.4505     5.0952    -2.9017 H       
  53 H53            3.5569     6.0596    -0.9850 H       
  54 H54            5.3266     6.2493    -0.9879 H       
  55 H55            4.6616     6.6446    -4.4892 H       
  56 H56            3.5553     7.2700    -3.2429 H       
  57 H57            7.1171     6.7712    -4.1254 H       
  58 H58            8.9371     8.1521    -3.2089 H       
  59 H59            4.3497     8.6502    -1.4799 H       
  60 H60            0.0683    -3.0103     0.4169 H       
  61 H61           -0.0210    -2.9697    -1.3603 H       
  62 H62            0.8775    -4.2714    -0.5439 H       
@<TRIPOS>BOND
   1    1    2 ar
   2    1    6 ar
   3    1   36 1
   4    2    3 ar
   5    2   37 1
   6    3    4 ar
   7    3   19 1
   8    4    5 ar
   9    4   38 1
  10    5    7 1
  11    5    6 ar
  12    6   10 1
  13    7    8 1
  14    7   39 1
  15    8    9 1
  16    8   22 1
  17    8   21 1
  18    9   10 am
  19    9   11 1
  20   10   18 2
  21   11   12 ar
  22   11   16 ar
  23   12   13 ar
  24   12   40 1
  25   13   14 ar
  26   13   41 1
  27   14   15 ar
  28   14   17 1
  29   15   16 ar
  30   15   42 1
  31   16   43 1
  32   17   20 1
  33   19   34 1
  34   20   44 1
  35   20   45 1
  36   20   46 1
  37   21   25 1
  38   21   47 1
  39   21   48 1
  40   22   23 1
  41   22   49 1
  42   22   50 1
  43   23   24 1
  44   23   51 1
  45   23   52 1
  46   24   25 1
  47   24   26 1
  48   25   53 1
  49   25   54 1
  50   26   27 1
  51   26   55 1
  52   26   56 1
  53   27   28 ar
  54   27   32 ar
  55   28   29 ar
  56   28   57 1
  57   29   30 ar
  58   29   58 1
  59   30   31 ar
  60   30   35 1
  61   31   32 ar
  62   31   33 1
  63   32   59 1
  64   34   60 1
  65   34   61 1
  66   34   62 1

#	End of record

