#	Name: ASD02690026
#	Creating user name:	WinNT
#	Creation time:	15. 06. 2019 20:26

#	Modifying user name:	WinNT
#	Modification time:	15. 06. 2019 20:26

#	Program:	/corina/corina34_cracker 3.40 0067  02.08.2006

@<TRIPOS>MOLECULE
ASD02690026
  56   59    0    0    0
SMALL
NO_CHARGES


@<TRIPOS>ATOM
   1 O1            -0.1483     1.5113    -0.0695 O.3     
   2 C2            -0.0361     0.0871    -0.0345 C.3     
   3 C3            -1.4344    -0.5401     0.0129 C.3     
   4 N4            -2.0515    -0.2751     1.3193 N.3     
   5 C5            -3.4659    -0.6700     1.3231 C.3     
   6 C6             0.6697    -0.4045    -1.2966 C.3     
   7 C7            -0.2031    -0.1962    -2.5065 C.ar    
   8 C8            -1.5590     0.0248    -2.4131 C.ar    
   9 C9            -4.1113    -0.2477     2.6449 C.3     
  10 C10            0.4034    -0.2328    -3.7553 C.ar    
  11 C11           -0.3420    -0.0528    -4.9023 C.ar    
  12 C12           -1.7038     0.1647    -4.8088 C.ar    
  13 C13           -2.3080     0.2028    -3.5689 C.ar    
  14 C14           -2.2813     0.0869    -1.0927 C.3     
  15 C15           -1.3107    -0.9437     2.3966 C.3     
  16 C16           -1.8918    -0.5296     3.7504 C.3     
  17 C17           -3.3717    -0.9185     3.8057 C.3     
  18 C18           -3.9646    -0.4596     5.1130 C.2     
  19 O19           -3.5261     0.5278     5.6643 O.2     
  20 C20           -5.0734    -1.2080     5.7194 C.ar    
  21 C21           -5.5875    -2.3482     5.0930 C.ar    
  22 C22           -5.6306    -0.7932     6.9409 C.ar    
  23 C23           -6.6627    -1.5222     7.4678 C.ar    
  24 C24           -7.1266    -2.6429     6.7854 C.ar    
  25 N25           -6.5811    -3.0178     5.6375 N.ar    
  26 O26           -8.1475    -3.3653     7.3058 O.3     
  27 C27           -8.5813    -4.5052     6.5612 C.3     
  28 C28           -9.7331    -5.1891     7.3005 C.3     
  29 F29          -10.8370    -4.3307     7.3398 F       
  30 H30            0.7013     1.9721    -0.1004 H       
  31 H31            0.5317    -0.2149     0.8456 H       
  32 H32           -1.3598    -1.6158    -0.1464 H       
  33 H33           -3.9812    -0.1828     0.4953 H       
  34 H34           -3.5413    -1.7516     1.2114 H       
  35 H35            1.6009     0.1472    -1.4258 H       
  36 H36            0.8931    -1.4664    -1.1931 H       
  37 H37           -4.0486     0.8354     2.7508 H       
  38 H38           -5.1571    -0.5548     2.6537 H       
  39 H39            1.4673    -0.4033    -3.8292 H       
  40 H40            0.1369    -0.0815    -5.8699 H       
  41 H41           -2.2928     0.3048    -5.7031 H       
  42 H42           -3.3721     0.3726    -3.4967 H       
  43 H43           -3.2246    -0.4534    -1.1733 H       
  44 H44           -2.4845     1.1282    -0.8428 H       
  45 H45           -1.3961    -2.0241     2.2799 H       
  46 H46           -0.2606    -0.6553     2.3485 H       
  47 H47           -1.3518    -1.0381     4.5491 H       
  48 H48           -1.7941     0.5490     3.8737 H       
  49 H49           -3.4672    -2.0010     3.7214 H       
  50 H50           -5.1664    -2.6812     4.1558 H       
  51 H51           -5.2532     0.0800     7.4522 H       
  52 H52           -7.1128    -1.2303     8.4052 H       
  53 H53           -8.9202    -4.1875     5.5751 H       
  54 H54           -7.7528    -5.2051     6.4526 H       
  55 H55          -10.0050    -6.1071     6.7795 H       
  56 H56           -9.4215    -5.4272     8.3175 H       
@<TRIPOS>BOND
   1    1    2 1
   2    1   30 1
   3    2    3 1
   4    2    6 1
   5    2   31 1
   6    3    4 1
   7    3   14 1
   8    3   32 1
   9    4    5 1
  10    4   15 1
  11    5    9 1
  12    5   33 1
  13    5   34 1
  14    6    7 1
  15    6   35 1
  16    6   36 1
  17    7   10 ar
  18    7    8 ar
  19    8   14 1
  20    8   13 ar
  21    9   17 1
  22    9   37 1
  23    9   38 1
  24   10   11 ar
  25   10   39 1
  26   11   12 ar
  27   11   40 1
  28   12   13 ar
  29   12   41 1
  30   13   42 1
  31   14   43 1
  32   14   44 1
  33   15   16 1
  34   15   45 1
  35   15   46 1
  36   16   17 1
  37   16   47 1
  38   16   48 1
  39   17   18 1
  40   17   49 1
  41   18   19 2
  42   18   20 1
  43   20   21 ar
  44   20   22 ar
  45   21   25 ar
  46   21   50 1
  47   22   23 ar
  48   22   51 1
  49   23   24 ar
  50   23   52 1
  51   24   25 ar
  52   24   26 1
  53   26   27 1
  54   27   28 1
  55   27   53 1
  56   27   54 1
  57   28   29 1
  58   28   55 1
  59   28   56 1

#	End of record

