#	Name: ASD03330679
#	Creating user name:	WinNT
#	Creation time:	15. 06. 2019 20:37

#	Modifying user name:	WinNT
#	Modification time:	15. 06. 2019 20:37

#	Program:	/corina/corina34_cracker 3.40 0067  02.08.2006

@<TRIPOS>MOLECULE
ASD03330679
  65   67    0    0    0
SMALL
NO_CHARGES


@<TRIPOS>ATOM
   1 C1             0.1063     1.5974     0.1980 C.2     
   2 N2             0.2155     0.2658    -0.0206 N.pl3   
   3 C3             1.3173     2.0320     0.6459 C.2     
   4 N4             2.1500     0.9690     0.6778 N.2     
   5 C5             1.4978    -0.0956     0.2734 C.2     
   6 C6             2.0590    -1.4596     0.1567 C.ar    
   7 C7             1.6579     3.4144     1.0264 C.2     
   8 O8             0.8170     4.2900     0.9533 O.2     
   9 C9             3.2400     5.0824     1.8338 C.3     
  10 N10            2.9013     3.7082     1.4555 N.am    
  11 C11            2.8386     5.3240     3.2903 C.3     
  12 C12            3.5903     4.3459     4.1954 C.3     
  13 C13            3.1923     6.7592     3.6854 C.3     
  14 C14            1.3319     5.1086     3.4466 C.3     
  15 C15            4.7240     5.2946     1.6799 C.2     
  16 O16            5.2652     6.4878     1.9717 O.3     
  17 O17            5.4267     4.3907     1.2937 O.2     
  18 C18            6.7009     6.6202     1.8000 C.3     
  19 C19           -0.8655    -0.6124    -0.4767 C.3     
  20 C20           -1.5782     0.0422    -1.6641 C.3     
  21 C21           -2.6893     0.9566    -1.1578 C.3     
  22 N22           -2.3180     1.5797     0.1144 N.3     
  23 C23           -1.1278     2.4300    -0.0350 C.3     
  24 C24            3.4061    -1.6382    -0.1592 C.ar    
  25 C25            1.2445    -2.5725     0.3676 C.ar    
  26 C26            1.7738    -3.8419     0.2572 C.ar    
  27 C27            3.1093    -4.0124    -0.0615 C.ar    
  28 C28            3.9234    -2.9128    -0.2667 C.ar    
  29 C29           -3.4419     2.3412     0.6755 C.3     
  30 C30           -4.0086     3.2768    -0.3943 C.3     
  31 C31           -4.5337     1.3736     1.1369 C.3     
  32 H32            2.7045     5.7793     1.1890 H       
  33 H33            3.5720     3.0099     1.5138 H       
  34 H34            4.6637     4.4994     4.0841 H       
  35 H35            3.3044     4.5181     5.2331 H       
  36 H36            3.3383     3.3235     3.9139 H       
  37 H37            2.6568     7.4560     3.0406 H       
  38 H38            2.9064     6.9313     4.7231 H       
  39 H39            4.2657     6.9127     3.5741 H       
  40 H40            1.0800     4.0862     3.1652 H       
  41 H41            1.0460     5.2807     4.4843 H       
  42 H42            0.7964     5.8054     2.8018 H       
  43 H43            7.2113     5.9022     2.4419 H       
  44 H44            6.9617     6.4269     0.7595 H       
  45 H45            7.0074     7.6308     2.0697 H       
  46 H46           -0.4499    -1.5717    -0.7851 H       
  47 H47           -1.5765    -0.7665     0.3350 H       
  48 H48           -0.8611     0.6275    -2.2396 H       
  49 H49           -2.0074    -0.7316    -2.3007 H       
  50 H50           -2.8763     1.7356    -1.8968 H       
  51 H51           -3.5983     0.3716    -1.0179 H       
  52 H52           -1.1643     3.2393     0.6943 H       
  53 H53           -1.1016     2.8465    -1.0419 H       
  54 H54            4.0426    -0.7805    -0.3196 H       
  55 H55            0.2021    -2.4407     0.6171 H       
  56 H56            1.1444    -4.7042     0.4202 H       
  57 H57            3.5190    -5.0080    -0.1460 H       
  58 H58            4.9650    -3.0524    -0.5155 H       
  59 H59           -3.0945     2.9289     1.5251 H       
  60 H60           -4.3850     2.6873    -1.2302 H       
  61 H61           -4.8219     3.8647     0.0311 H       
  62 H62           -3.2225     3.9451    -0.7458 H       
  63 H63           -4.1300     0.7071     1.8990 H       
  64 H64           -5.3676     1.9387     1.5533 H       
  65 H65           -4.8811     0.7859     0.2873 H       
@<TRIPOS>BOND
   1    1    2 1
   2    1    3 2
   3    1   23 1
   4    2   19 1
   5    2    5 1
   6    3    4 1
   7    3    7 1
   8    4    5 2
   9    5    6 1
  10    6   24 ar
  11    6   25 ar
  12    7    8 2
  13    7   10 am
  14    9   10 1
  15    9   11 1
  16    9   15 1
  17    9   32 1
  18   10   33 1
  19   11   12 1
  20   11   13 1
  21   11   14 1
  22   12   34 1
  23   12   35 1
  24   12   36 1
  25   13   37 1
  26   13   38 1
  27   13   39 1
  28   14   40 1
  29   14   41 1
  30   14   42 1
  31   15   16 1
  32   15   17 2
  33   16   18 1
  34   18   43 1
  35   18   44 1
  36   18   45 1
  37   19   20 1
  38   19   46 1
  39   19   47 1
  40   20   21 1
  41   20   48 1
  42   20   49 1
  43   21   22 1
  44   21   50 1
  45   21   51 1
  46   22   23 1
  47   22   29 1
  48   23   52 1
  49   23   53 1
  50   24   28 ar
  51   24   54 1
  52   25   26 ar
  53   25   55 1
  54   26   27 ar
  55   26   56 1
  56   27   28 ar
  57   27   57 1
  58   28   58 1
  59   29   30 1
  60   29   31 1
  61   29   59 1
  62   30   60 1
  63   30   61 1
  64   30   62 1
  65   31   63 1
  66   31   64 1
  67   31   65 1

#	End of record

