#	Name: ASD01813613
#	Creating user name:	WinNT
#	Creation time:	15. 06. 2019 19:30

#	Modifying user name:	WinNT
#	Modification time:	15. 06. 2019 19:30

#	Program:	/corina/corina34_cracker 3.40 0067  02.08.2006

@<TRIPOS>MOLECULE
ASD01813613
  42   45    0    0    0
SMALL
NO_CHARGES


@<TRIPOS>ATOM
   1 C1            -0.0168     1.3825    -0.0439 C.ar    
   2 C2             0.0020    -0.0038    -0.0510 C.ar    
   3 C3             1.1975    -0.6932    -0.0479 C.ar    
   4 C4             2.4040     0.0044    -0.0381 C.ar    
   5 C5             2.3834     1.4096    -0.0314 C.ar    
   6 C6             1.1657     2.0946    -0.0342 C.ar    
   7 N7             3.6050    -0.6734    -0.0339 N.pl3   
   8 C8             4.7898    -0.0496    -0.0236 C.2     
   9 C9             4.8962     1.3266    -0.0159 C.2     
  10 C10            3.6660     2.1351    -0.0211 C.2     
  11 O11            3.7066     3.3531    -0.0152 O.2     
  12 C12            6.2155     1.9737    -0.0036 C.2     
  13 O13            6.3065     3.3187     0.0038 O.3     
  14 O14            7.2249     1.2962    -0.0002 O.2     
  15 C15            3.5837    -2.1382    -0.0406 C.3     
  16 C16            3.4403    -2.6321    -1.4571 C.ar    
  17 N17            2.2403    -2.7346    -1.9912 N.ar    
  18 C18            2.0668    -3.1641    -3.2345 C.ar    
  19 C19            3.1608    -3.5227    -4.0188 C.ar    
  20 C20            4.4335    -3.4249    -3.4830 C.ar    
  21 C21            4.5704    -2.9661    -2.1807 C.ar    
  22 F22            1.1984    -2.0441    -0.0540 F       
  23 F23            1.1457     3.4455    -0.0282 F       
  24 C24            0.6966    -3.2637    -3.7938 C.ar    
  25 C25           -0.4131    -2.9087    -3.0214 C.ar    
  26 C26           -1.6705    -3.0194    -3.5886 C.ar    
  27 C27           -1.7880    -3.4740    -4.8910 C.ar    
  28 N28           -0.7209    -3.8019    -5.5957 N.ar    
  29 C29            0.4956    -3.7072    -5.0993 C.ar    
  30 Cl30          -3.3626    -3.6157    -5.6081 Cl      
  31 H31           -0.9606     1.9075    -0.0506 H       
  32 H32           -0.9295    -0.5504    -0.0586 H       
  33 H33            5.6921    -0.6430    -0.0209 H       
  34 H34            7.1957     3.6986     0.0118 H       
  35 H35            4.5134    -2.5171     0.3839 H       
  36 H36            2.7418    -2.4920     0.5545 H       
  37 H37            3.0181    -3.8725    -5.0306 H       
  38 H38            5.3007    -3.6960    -4.0668 H       
  39 H39            5.5496    -2.8783    -1.7337 H       
  40 H40           -0.2922    -2.5572    -2.0073 H       
  41 H41           -2.5505    -2.7543    -3.0214 H       
  42 H42            1.3444    -3.9845    -5.7067 H       
@<TRIPOS>BOND
   1    1    2 ar
   2    1    6 ar
   3    1   31 1
   4    2    3 ar
   5    2   32 1
   6    3    4 ar
   7    3   22 1
   8    4    5 ar
   9    4    7 1
  10    5    6 ar
  11    5   10 1
  12    6   23 1
  13    7    8 1
  14    7   15 1
  15    8    9 2
  16    8   33 1
  17    9   10 1
  18    9   12 1
  19   10   11 2
  20   12   13 1
  21   12   14 2
  22   13   34 1
  23   15   16 1
  24   15   35 1
  25   15   36 1
  26   16   17 ar
  27   16   21 ar
  28   17   18 ar
  29   18   19 ar
  30   18   24 1
  31   19   20 ar
  32   19   37 1
  33   20   21 ar
  34   20   38 1
  35   21   39 1
  36   24   25 ar
  37   24   29 ar
  38   25   26 ar
  39   25   40 1
  40   26   27 ar
  41   26   41 1
  42   27   28 ar
  43   27   30 1
  44   28   29 ar
  45   29   42 1

#	End of record

