#	Name: ASD00120009
#	Creating user name:	WinNT
#	Creation time:	15. 06. 2019 18:31

#	Modifying user name:	WinNT
#	Modification time:	15. 06. 2019 18:31

#	Program:	/corina/corina34_cracker 3.40 0067  02.08.2006

@<TRIPOS>MOLECULE
ASD00120009
  54   57    0    0    0
SMALL
NO_CHARGES


@<TRIPOS>ATOM
   1 O1             0.4103    -0.0841    -0.6859 O.2     
   2 C2             0.2151     1.0421    -0.2806 C.2     
   3 C3             1.3514     2.0305    -0.2253 C.3     
   4 N4             2.6062     1.3510    -0.5570 N.pl3   
   5 C5             2.8913     0.7145    -1.7134 C.2     
   6 N6             4.1026     0.2346    -1.6392 N.2     
   7 C7             4.6287     0.5445    -0.4449 C.2     
   8 C8             3.7107     1.2480     0.2449 C.2     
   9 S9             6.2409     0.1125     0.1198 S.o2    
  10 O10            6.1205     0.0841     1.5354 O.2     
  11 O11            6.5655    -1.0618    -0.6116 O.2     
  12 C12            7.2896     1.4976    -0.4021 C.3     
  13 C13            8.7953     1.3740    -0.1603 C.3     
  14 C14            8.2367     1.2618    -1.5803 C.3     
  15 C15            1.0987     3.1549    -1.2316 C.3     
  16 C16            2.2334     4.1779    -1.1489 C.3     
  17 C17            2.0844     5.2220    -2.2693 C.3     
  18 C18            1.9196     6.5908    -1.5770 C.3     
  19 C19            2.5707     6.3935    -0.1855 C.3     
  20 C20            2.1539     4.9485     0.1851 C.3     
  21 N21           -1.0191     1.4114     0.1152 N.am    
  22 C22           -2.0715     0.5070     0.0430 C.ar    
  23 C23           -1.8006    -0.8571    -0.0296 C.ar    
  24 C24           -2.8497    -1.7500    -0.1011 C.ar    
  25 C25           -4.1580    -1.2430    -0.0976 C.ar    
  26 C26           -4.3489     0.1383    -0.0224 C.ar    
  27 N27           -3.3192     0.9545     0.0497 N.ar    
  28 C28           -5.3143    -2.1552    -0.1728 C.2     
  29 O29           -5.1379    -3.3556    -0.2383 O.2     
  30 O30           -6.5665    -1.6575    -0.1687 O.3     
  31 H31            1.4196     2.4498     0.7785 H       
  32 H32            2.2268     0.6180    -2.5593 H       
  33 H33            3.8219     1.6479     1.2420 H       
  34 H34            6.8438     2.4875    -0.3047 H       
  35 H35            9.3402     2.2826     0.0958 H       
  36 H36            9.1558     0.4603     0.3123 H       
  37 H37            8.2298     0.2743    -2.0418 H       
  38 H38            8.4142     2.0966    -2.2584 H       
  39 H39            1.0571     2.7390    -2.2383 H       
  40 H40            0.1518     3.6430    -1.0008 H       
  41 H41            3.1965     3.6745    -1.2333 H       
  42 H42            2.9756     5.2260    -2.8969 H       
  43 H43            1.2037     5.0000    -2.8720 H       
  44 H44            2.4424     7.3666    -2.1363 H       
  45 H45            0.8638     6.8406    -1.4722 H       
  46 H46            3.6554     6.4778    -0.2512 H       
  47 H47            2.1694     7.1077     0.5335 H       
  48 H48            1.1359     4.9331     0.5745 H       
  49 H49            2.8477     4.5259     0.9118 H       
  50 H50           -1.1728     2.3086     0.4505 H       
  51 H51           -0.7806    -1.2118    -0.0303 H       
  52 H52           -2.6684    -2.8131    -0.1586 H       
  53 H53           -5.3513     0.5403    -0.0190 H       
  54 H54           -7.2922    -2.2945    -0.2196 H       
@<TRIPOS>BOND
   1    1    2 2
   2    2    3 1
   3    2   21 am
   4    3    4 1
   5    3   15 1
   6    3   31 1
   7    4    5 1
   8    4    8 1
   9    5    6 2
  10    5   32 1
  11    6    7 1
  12    7    8 2
  13    7    9 1
  14    8   33 1
  15    9   10 2
  16    9   11 2
  17    9   12 1
  18   12   13 1
  19   12   14 1
  20   12   34 1
  21   13   14 1
  22   13   35 1
  23   13   36 1
  24   14   37 1
  25   14   38 1
  26   15   16 1
  27   15   39 1
  28   15   40 1
  29   16   17 1
  30   16   20 1
  31   16   41 1
  32   17   18 1
  33   17   42 1
  34   17   43 1
  35   18   19 1
  36   18   44 1
  37   18   45 1
  38   19   20 1
  39   19   46 1
  40   19   47 1
  41   20   48 1
  42   20   49 1
  43   21   22 1
  44   21   50 1
  45   22   23 ar
  46   22   27 ar
  47   23   24 ar
  48   23   51 1
  49   24   25 ar
  50   24   52 1
  51   25   26 ar
  52   25   28 1
  53   26   27 ar
  54   26   53 1
  55   28   29 2
  56   28   30 1
  57   30   54 1

#	End of record

