#	Name: ASD01840496
#	Creating user name:	WinNT
#	Creation time:	15. 06. 2019 19:37

#	Modifying user name:	WinNT
#	Modification time:	15. 06. 2019 19:37

#	Program:	/corina/corina34_cracker 3.40 0067  02.08.2006

@<TRIPOS>MOLECULE
ASD01840496
  47   51    0    0    0
SMALL
NO_CHARGES


@<TRIPOS>ATOM
   1 C1            -0.1550     1.6398    -0.0463 C.3     
   2 C2            -0.0909     0.1111    -0.0444 C.3     
   3 N3             0.4783    -0.3647    -1.3104 N.am    
   4 C4             1.6972    -1.1088    -0.9741 C.3     
   5 C5             1.8557    -1.0744     0.5233 C.ar    
   6 N6             2.7753    -1.5858     1.3309 N.ar    
   7 C7             2.6981    -1.4190     2.6360 C.ar    
   8 N8             1.7150    -0.7434     3.1953 N.ar    
   9 C9             0.7552    -0.2008     2.4503 C.ar    
  10 N10           -0.2782     0.5099     3.0390 N.3     
  11 C11            0.2372     1.6775     3.7779 C.3     
  12 C12           -0.7716     1.3504     4.8879 C.3     
  13 C13           -0.6506    -0.0782     4.3391 C.3     
  14 C14            0.8091    -0.3605     1.0654 C.ar    
  15 C15            3.7661    -2.0183     3.5143 C.3     
  16 C16            4.7756    -2.9608     2.8559 C.3     
  17 C17            5.2075    -1.5580     3.2878 C.3     
  18 C18           -0.0225    -0.1584    -2.5446 C.2     
  19 O19           -1.0965     0.3944    -2.6800 O.2     
  20 C20            0.7346    -0.6044    -3.7336 C.ar    
  21 C21            0.3009    -0.2530    -5.0128 C.ar    
  22 C22            1.0118    -0.6718    -6.1188 C.ar    
  23 C23            2.1524    -1.4384    -5.9624 C.ar    
  24 C24            2.5886    -1.7909    -4.6961 C.ar    
  25 Cl25           4.0217    -2.7529    -4.5100 Cl      
  26 C26            1.8892    -1.3737    -3.5813 C.ar    
  27 H27            0.8547     2.0457    -0.1083 H       
  28 H28           -0.7359     1.9780    -0.9043 H       
  29 H29           -0.6294     1.9847     0.8724 H       
  30 H30           -1.0911    -0.3005     0.0906 H       
  31 H31            1.6053    -2.1409    -1.3123 H       
  32 H32            2.5593    -0.6392    -1.4478 H       
  33 H33            1.2761     1.5700     4.0899 H       
  34 H34            0.0421     2.6273     3.2800 H       
  35 H35           -0.3803     1.4752     5.8975 H       
  36 H36           -1.7536     1.8015     4.7456 H       
  37 H37           -1.5982    -0.6165     4.3167 H       
  38 H38            0.1513    -0.6543     4.8008 H       
  39 H39            3.4635    -2.2398     4.5377 H       
  40 H40            5.1372    -3.8028     3.4461 H       
  41 H41            4.6673    -3.1474     1.7874 H       
  42 H42            5.3834    -0.8217     2.5035 H       
  43 H43            5.8533    -1.4771     4.1621 H       
  44 H44           -0.5897     0.3452    -5.1367 H       
  45 H45            0.6766    -0.4006    -7.1090 H       
  46 H46            2.7049    -1.7639    -6.8314 H       
  47 H47            2.2324    -1.6452    -2.5940 H       
@<TRIPOS>BOND
   1    1    2 1
   2    1   27 1
   3    1   28 1
   4    1   29 1
   5    2   14 1
   6    2    3 1
   7    2   30 1
   8    3    4 1
   9    3   18 am
  10    4    5 1
  11    4   31 1
  12    4   32 1
  13    5   14 ar
  14    5    6 ar
  15    6    7 ar
  16    7    8 ar
  17    7   15 1
  18    8    9 ar
  19    9   10 1
  20    9   14 ar
  21   10   13 1
  22   10   11 1
  23   11   12 1
  24   11   33 1
  25   11   34 1
  26   12   13 1
  27   12   35 1
  28   12   36 1
  29   13   37 1
  30   13   38 1
  31   15   17 1
  32   15   16 1
  33   15   39 1
  34   16   17 1
  35   16   40 1
  36   16   41 1
  37   17   42 1
  38   17   43 1
  39   18   19 2
  40   18   20 1
  41   20   26 ar
  42   20   21 ar
  43   21   22 ar
  44   21   44 1
  45   22   23 ar
  46   22   45 1
  47   23   24 ar
  48   23   46 1
  49   24   25 1
  50   24   26 ar
  51   26   47 1

#	End of record

