#	Name: ASD08070377
#	Creating user name:	WinNT
#	Creation time:	15. 06. 2019 21:14

#	Modifying user name:	WinNT
#	Modification time:	15. 06. 2019 21:14

#	Program:	/corina/corina34_cracker 3.40 0067  02.08.2006

@<TRIPOS>MOLECULE
ASD08070377
  30   31    0    0    0
SMALL
NO_CHARGES


@<TRIPOS>ATOM
   1 O1            -0.0174     1.4354     0.0099 O.3     
   2 C2             0.0021    -0.0041     0.0020 C.3     
   3 O3             1.2437    -0.3267    -0.6517 O.3     
   4 C4             2.0691     0.7334    -0.4083 C.ar    
   5 C5             1.2911     1.8185    -0.0005 C.ar    
   6 C6             1.8949     3.0293     0.3110 C.ar    
   7 C7             3.2628     3.1661     0.2187 C.ar    
   8 C8             4.0472     2.0842    -0.1890 C.ar    
   9 C9             3.4402     0.8643    -0.5028 C.ar    
  10 C10            5.5114     2.2287    -0.2892 C.2     
  11 O11            6.1921     1.2868    -0.6439 O.2     
  12 O12            6.0945     3.4054     0.0127 O.3     
  13 C13           -0.0103    -0.5496     1.4314 C.3     
  14 C14           -1.1832    -0.5532    -0.7945 C.3     
  15 C15            7.5397     3.4752    -0.1084 C.3     
  16 C16            8.0163     4.8782     0.2731 C.3     
  17 H17            1.2903     3.8668     0.6263 H       
  18 H18            3.7286     4.1099     0.4611 H       
  19 H19            4.0431     0.0256    -0.8182 H       
  20 H20           -0.9181    -0.2214     1.9377 H       
  21 H21            0.0173    -1.6389     1.4048 H       
  22 H22            0.8611    -0.1770     1.9700 H       
  23 H23           -1.1353    -0.1833    -1.8187 H       
  24 H24           -1.1442    -1.6425    -0.7995 H       
  25 H25           -2.1145    -0.2251    -0.3329 H       
  26 H26            7.9959     2.7429     0.5577 H       
  27 H27            7.8289     3.2605    -1.1371 H       
  28 H28            9.1013     4.9306     0.1822 H       
  29 H29            7.5601     5.6105    -0.3930 H       
  30 H30            7.7271     5.0929     1.3019 H       
@<TRIPOS>BOND
   1    1    2 1
   2    1    5 1
   3    2    3 1
   4    2   13 1
   5    2   14 1
   6    3    4 1
   7    4    5 ar
   8    4    9 ar
   9    5    6 ar
  10    6    7 ar
  11    6   17 1
  12    7    8 ar
  13    7   18 1
  14    8    9 ar
  15    8   10 1
  16    9   19 1
  17   10   11 2
  18   10   12 1
  19   12   15 1
  20   13   20 1
  21   13   21 1
  22   13   22 1
  23   14   23 1
  24   14   24 1
  25   14   25 1
  26   15   16 1
  27   15   26 1
  28   15   27 1
  29   16   28 1
  30   16   29 1
  31   16   30 1

#	End of record

