#	Name: ASD00170010
#	Creating user name:	WinNT
#	Creation time:	15. 06. 2019 18:31

#	Modifying user name:	WinNT
#	Modification time:	15. 06. 2019 18:31

#	Program:	/corina/corina34_cracker 3.40 0067  02.08.2006

@<TRIPOS>MOLECULE
ASD00170010
  53   56    0    0    0
SMALL
NO_CHARGES


@<TRIPOS>ATOM
   1 C1             0.4432     1.7910     0.7278 C.ar    
   2 C2             3.8684     8.8442    -5.2505 C.ar    
   3 C3             3.5506     7.5337    -4.9621 C.ar    
   4 C4             4.5158     6.6896    -4.4100 C.ar    
   5 C5             5.7978     7.1785    -4.1526 C.ar    
   6 C6             6.1038     8.4910    -4.4447 C.ar    
   7 C7             5.1420     9.3238    -4.9925 C.ar    
   8 C8             4.1813     5.2832    -4.0985 C.2     
   9 C9             5.2233     4.3704    -3.6289 C.2     
  10 O10            3.0383     4.8851    -4.2329 O.2     
  11 Cl11           5.5345    10.9749    -5.3576 Cl      
  12 C12            5.5110     4.1325    -2.2300 C.2     
  13 C13            6.4951     3.2676    -2.0398 C.2     
  14 S14            7.1285     2.6923    -3.5713 S.3     
  15 C15            6.0323     3.6402    -4.4684 C.2     
  16 N16            5.9698     3.6759    -5.8467 N.pl3   
  17 C17            4.7660     4.8023    -1.1043 C.3     
  18 N18            3.4862     4.1147    -0.8867 N.3     
  19 C19            2.8400     4.5827     0.3474 C.3     
  20 C20            1.4770     3.9026     0.4959 C.3     
  21 N21            1.6600     2.4447     0.5210 N.3     
  22 C22            2.3062     1.9767    -0.7131 C.3     
  23 C23            3.6692     2.6568    -0.8617 C.3     
  24 C24            0.3991     0.4037     0.7845 C.ar    
  25 C25           -0.8057    -0.2395     0.9897 C.ar    
  26 C26           -1.9673     0.4959     1.1386 C.ar    
  27 C27           -1.9271     1.8770     1.0822 C.ar    
  28 C28           -0.7248     2.5268     0.8831 C.ar    
  29 C29           -3.2801    -0.2095     1.3623 C.3     
  30 F30           -3.4895    -0.3807     2.7349 F       
  31 F31           -4.3191     0.5574     0.8241 F       
  32 F32           -3.2504    -1.4599     0.7355 F       
  33 H33            3.1238     9.4970    -5.6818 H       
  34 H34            2.5571     7.1610    -5.1634 H       
  35 H35            6.5485     6.5302    -3.7252 H       
  36 H36            7.0951     8.8705    -4.2458 H       
  37 H37            6.8596     2.9581    -1.0714 H       
  38 H38            6.6286     3.1983    -6.3746 H       
  39 H39            5.2669     4.1785    -6.2875 H       
  40 H40            5.3635     4.7544    -0.1939 H       
  41 H41            4.5791     5.8448    -1.3618 H       
  42 H42            3.4666     4.3324     1.2034 H       
  43 H43            2.7040     5.6632     0.2995 H       
  44 H44            1.0084     4.2263     1.4253 H       
  45 H45            0.8410     4.1749    -0.3464 H       
  46 H46            2.4422     0.8963    -0.6652 H       
  47 H47            1.6796     2.2271    -1.5692 H       
  48 H48            4.1378     2.3331    -1.7911 H       
  49 H49            4.3052     2.3845    -0.0194 H       
  50 H50            1.3059    -0.1712     0.6680 H       
  51 H51           -0.8407    -1.3180     1.0335 H       
  52 H52           -2.8362     2.4483     1.1985 H       
  53 H53           -0.6940     3.6054     0.8392 H       
@<TRIPOS>BOND
   1    1   24 ar
   2    1   21 1
   3    1   28 ar
   4    2    3 ar
   5    2    7 ar
   6    2   33 1
   7    3    4 ar
   8    3   34 1
   9    4    5 ar
  10    4    8 1
  11    5    6 ar
  12    5   35 1
  13    6    7 ar
  14    6   36 1
  15    7   11 1
  16    8    9 1
  17    8   10 2
  18    9   12 1
  19    9   15 2
  20   12   13 2
  21   12   17 1
  22   13   14 1
  23   13   37 1
  24   14   15 1
  25   15   16 1
  26   16   38 1
  27   16   39 1
  28   17   18 1
  29   17   40 1
  30   17   41 1
  31   18   19 1
  32   18   23 1
  33   19   20 1
  34   19   42 1
  35   19   43 1
  36   20   21 1
  37   20   44 1
  38   20   45 1
  39   21   22 1
  40   22   23 1
  41   22   46 1
  42   22   47 1
  43   23   48 1
  44   23   49 1
  45   24   25 ar
  46   24   50 1
  47   25   26 ar
  48   25   51 1
  49   26   27 ar
  50   26   29 1
  51   27   28 ar
  52   27   52 1
  53   28   53 1
  54   29   30 1
  55   29   31 1
  56   29   32 1

#	End of record

