#	Name: ASD01811204
#	Creating user name:	WinNT
#	Creation time:	15. 06. 2019 19:26

#	Modifying user name:	WinNT
#	Modification time:	15. 06. 2019 19:26

#	Program:	/corina/corina34_cracker 3.40 0067  02.08.2006

@<TRIPOS>MOLECULE
ASD01811204
  66   70    0    0    0
SMALL
NO_CHARGES


@<TRIPOS>ATOM
   1 C1            -7.3214     2.2133    -4.0019 C.1     
   2 C2            -6.3440     3.0076    -3.3205 C.ar    
   3 C3            -5.1730     2.4183    -2.8394 C.ar    
   4 C4            -4.2357     3.1893    -2.1839 C.ar    
   5 C5            -4.4538     4.5435    -2.0022 C.ar    
   6 C6            -5.6121     5.1338    -2.4759 C.ar    
   7 C7            -6.5548     4.3759    -3.1392 C.ar    
   8 N8            -8.0969     1.5833    -4.5425 N.1     
   9 N9            -2.4098     7.7982    -0.2276 N.am    
  10 C10           -1.8546     7.3097    -1.4972 C.3     
  11 C11           -2.9246     6.4838    -2.2180 C.3     
  12 C12           -3.4254     5.3792    -1.2846 C.3     
  13 C13           -4.0572     6.0078    -0.0405 C.3     
  14 C14           -3.0000     6.8284     0.7050 C.3     
  15 C15           -2.3735     9.1104     0.0781 C.2     
  16 C16           -3.0191     9.5994     1.3152 C.ar    
  17 C17           -3.9802    10.6109     1.2505 C.ar    
  18 C18           -4.5838    11.0685     2.4046 C.ar    
  19 C19           -4.2427    10.5302     3.6298 C.ar    
  20 C20           -3.2839     9.5183     3.7087 C.ar    
  21 C21           -2.6742     9.0484     2.5474 C.ar    
  22 O22           -1.8100     9.8917    -0.6632 O.2     
  23 C23           -4.3587    11.2043    -0.0821 C.3     
  24 C24           -5.3450    10.2750    -0.7925 C.3     
  25 N25           -2.8722     8.5821     7.1169 N.2     
  26 N26           -3.4145     9.2860     6.1884 N.2     
  27 C27           -2.9195     8.9434     5.0218 C.2     
  28 N28           -1.9991     7.9493     5.2513 N.pl3   
  29 C29           -2.0002     7.7496     6.5999 C.2     
  30 O30           -1.2414     6.8569     7.2801 O.3     
  31 C31           -1.4045     6.8149     8.6991 C.3     
  32 C32           -0.4720     5.7547     9.2885 C.3     
  33 C33           -4.9066    11.0364     4.8845 C.3     
  34 C34           -4.7390    12.5189     5.2235 C.3     
  35 C35           -6.0865    11.9966     4.7213 C.3     
  36 H36           -5.0018     1.3612    -2.9800 H       
  37 H37           -3.3296     2.7348    -1.8113 H       
  38 H38           -5.7762     6.1913    -2.3304 H       
  39 H39           -7.4562     4.8389    -3.5127 H       
  40 H40           -1.5658     8.1566    -2.1196 H       
  41 H41           -0.9833     6.6855    -1.2988 H       
  42 H42           -3.7570     7.1302    -2.4962 H       
  43 H43           -2.4958     6.0359    -3.1145 H       
  44 H44           -2.5881     4.7480    -0.9869 H       
  45 H45           -4.8789     6.6587    -0.3392 H       
  46 H46           -4.4346     5.2212     0.6129 H       
  47 H47           -2.2221     6.1649     1.0830 H       
  48 H48           -3.4670     7.3577     1.5356 H       
  49 H49           -5.3259    11.8513     2.3492 H       
  50 H50           -1.9349     8.2631     2.6026 H       
  51 H51           -4.8238    12.1778     0.0726 H       
  52 H52           -3.4648    11.3219    -0.6945 H       
  53 H53           -4.8799     9.3014    -0.9472 H       
  54 H54           -6.2390    10.1574    -0.1800 H       
  55 H55           -5.6188    10.7042    -1.7563 H       
  56 H56           -1.4603     7.4860     4.5910 H       
  57 H57           -1.1600     7.7893     9.1219 H       
  58 H58           -2.4377     6.5637     8.9388 H       
  59 H59           -0.5964     5.7226    10.3709 H       
  60 H60           -0.7165     4.7802     8.8656 H       
  61 H61            0.5612     6.0059     9.0488 H       
  62 H62           -4.9423    10.3311     5.7148 H       
  63 H63           -4.6649    12.7890     6.2770 H       
  64 H64           -4.1486    13.1281     4.5391 H       
  65 H65           -6.3826    12.2622     3.7065 H       
  66 H66           -6.8989    11.9231     5.4443 H       
@<TRIPOS>BOND
   1    1    2 1
   2    1    8 3
   3    2    3 ar
   4    2    7 ar
   5    3    4 ar
   6    3   36 1
   7    4    5 ar
   8    4   37 1
   9    5    6 ar
  10    5   12 1
  11    6    7 ar
  12    6   38 1
  13    7   39 1
  14    9   10 1
  15    9   14 1
  16    9   15 am
  17   10   11 1
  18   10   40 1
  19   10   41 1
  20   11   12 1
  21   11   42 1
  22   11   43 1
  23   12   13 1
  24   12   44 1
  25   13   14 1
  26   13   45 1
  27   13   46 1
  28   14   47 1
  29   14   48 1
  30   15   16 1
  31   15   22 2
  32   16   17 ar
  33   16   21 ar
  34   17   18 ar
  35   17   23 1
  36   18   19 ar
  37   18   49 1
  38   19   20 ar
  39   19   33 1
  40   20   21 ar
  41   20   27 1
  42   21   50 1
  43   23   24 1
  44   23   51 1
  45   23   52 1
  46   24   53 1
  47   24   54 1
  48   24   55 1
  49   25   26 1
  50   25   29 2
  51   26   27 2
  52   27   28 1
  53   28   29 1
  54   28   56 1
  55   29   30 1
  56   30   31 1
  57   31   32 1
  58   31   57 1
  59   31   58 1
  60   32   59 1
  61   32   60 1
  62   32   61 1
  63   33   34 1
  64   33   35 1
  65   33   62 1
  66   34   35 1
  67   34   63 1
  68   34   64 1
  69   35   65 1
  70   35   66 1

#	End of record

