#	Name: ASD01900195
#	Creating user name:	WinNT
#	Creation time:	15. 06. 2019 19:51

#	Modifying user name:	WinNT
#	Modification time:	15. 06. 2019 19:51

#	Program:	/corina/corina34_cracker 3.40 0067  02.08.2006

@<TRIPOS>MOLECULE
ASD01900195
  40   43    0    0    0
SMALL
NO_CHARGES


@<TRIPOS>ATOM
   1 N1            -0.0167     1.3829     0.0096 N.pl3   
   2 S2            -1.3884    -1.0580     0.1269 S.3     
   3 C3             0.0170    -0.0037    -0.0051 C.2     
   4 N4             1.0894    -0.7272    -0.1190 N.2     
   5 C5             0.9339    -2.0394    -0.1307 C.2     
   6 C6             1.9743    -3.0889    -0.3928 C.2     
   7 C7             1.6717    -4.1701    -1.2455 C.2     
   8 C8             0.3908    -4.2667    -2.0170 C.3     
   9 C9            -0.8036    -4.6736    -1.1368 C.3     
  10 C10           -0.7143    -3.9073     0.1922 C.3     
  11 C11           -0.3413    -2.4658     0.0422 C.2     
  12 N12            2.7009    -4.9668    -1.2443 N.2     
  13 N13            3.7019    -4.3983    -0.4402 N.pl3   
  14 C14            3.2290    -3.2318     0.0648 C.2     
  15 C15            1.1709     2.1078     0.0039 C.ar    
  16 C16            1.1305     3.4939    -0.0934 C.ar    
  17 C17            2.3179     4.2060    -0.0983 C.ar    
  18 C18            3.5110     3.5062    -0.0054 C.ar    
  19 C19            3.4803     2.1222     0.0890 C.ar    
  20 N20            2.3285     1.4705     0.0965 N.ar    
  21 O21            4.6435     1.4299     0.1802 O.3     
  22 C22            4.5461     0.0074     0.2749 C.3     
  23 C23            5.9495    -0.5947     0.3688 C.3     
  24 H24           -0.8683     1.8472     0.0199 H       
  25 H25            0.1797    -3.2985    -2.4711 H       
  26 H26            0.5121    -5.0056    -2.8092 H       
  27 H27           -1.7349    -4.4205    -1.6436 H       
  28 H28           -0.7681    -5.7459    -0.9443 H       
  29 H29           -1.6813    -3.9653     0.6919 H       
  30 H30            0.0287    -4.3940     0.8241 H       
  31 H31            4.5801    -4.7753    -0.2740 H       
  32 H32            3.7600    -2.5481     0.7107 H       
  33 H33            0.1840     4.0092    -0.1646 H       
  34 H34            2.3147     5.2834    -0.1732 H       
  35 H35            4.4541     4.0325    -0.0070 H       
  36 H36            3.9760    -0.2594     1.1648 H       
  37 H37            4.0422    -0.3820    -0.6097 H       
  38 H38            5.8753    -1.6798     0.4410 H       
  39 H39            6.5197    -0.3280    -0.5211 H       
  40 H40            6.4535    -0.2054     1.2534 H       
@<TRIPOS>BOND
   1    1    3 1
   2    1   15 1
   3    1   24 1
   4    2    3 1
   5    2   11 1
   6    3    4 2
   7    4    5 1
   8    5    6 1
   9    5   11 2
  10    6    7 1
  11    6   14 2
  12    7    8 1
  13    7   12 2
  14    8    9 1
  15    8   25 1
  16    8   26 1
  17    9   10 1
  18    9   27 1
  19    9   28 1
  20   10   11 1
  21   10   29 1
  22   10   30 1
  23   12   13 1
  24   13   14 1
  25   13   31 1
  26   14   32 1
  27   15   16 ar
  28   15   20 ar
  29   16   17 ar
  30   16   33 1
  31   17   18 ar
  32   17   34 1
  33   18   19 ar
  34   18   35 1
  35   19   20 ar
  36   19   21 1
  37   21   22 1
  38   22   23 1
  39   22   36 1
  40   22   37 1
  41   23   38 1
  42   23   39 1
  43   23   40 1

#	End of record

