#	Name: ASD03330594
#	Creating user name:	WinNT
#	Creation time:	15. 06. 2019 20:37

#	Modifying user name:	WinNT
#	Modification time:	15. 06. 2019 20:37

#	Program:	/corina/corina34_cracker 3.40 0067  02.08.2006

@<TRIPOS>MOLECULE
ASD03330594
  64   66    0    0    0
SMALL
NO_CHARGES


@<TRIPOS>ATOM
   1 C1            -0.3268     1.1640     0.8244 C.2     
   2 N2            -0.3593    -0.1695     1.0556 N.pl3   
   3 C3             0.9786     1.5498     0.8783 C.2     
   4 N4             1.7231     0.4496     1.1230 N.2     
   5 C5             0.9278    -0.5891     1.2253 C.2     
   6 C6             1.3552    -1.9821     1.4828 C.ar    
   7 C7             1.4874     2.9214     0.7006 C.2     
   8 O8             0.7132     3.8337     0.4829 O.2     
   9 C9             3.3165     4.5283     0.6026 C.3     
  10 N10            2.8107     3.1647     0.7792 N.am    
  11 C11            3.5014     4.8144    -0.8890 C.3     
  12 C12            2.1383     4.8004    -1.5838 C.3     
  13 C13            4.1510     6.1880    -1.0682 C.3     
  14 C14            4.3997     3.7409    -1.5067 C.3     
  15 C15            4.6403     4.6684     1.3088 C.2     
  16 N16            5.1774     5.8901     1.4976 N.am    
  17 O17            5.2225     3.6819     1.7073 O.2     
  18 C18            6.4973     6.0218     2.1195 C.3     
  19 C19           -1.5707    -0.9916     1.1221 C.3     
  20 C20           -2.4701    -0.6596    -0.0726 C.3     
  21 C21           -3.3830     0.5107     0.2794 C.3     
  22 N22           -2.7095     1.4505     1.1781 N.3     
  23 C23           -1.5211     2.0384     0.5425 C.3     
  24 C24           -3.6342     2.4967     1.6348 C.3     
  25 C25            0.9075    -4.1633     2.3906 C.ar    
  26 C26            2.1535    -4.5942     1.9680 C.ar    
  27 C27            3.0068    -3.7217     1.3068 C.ar    
  28 C28            2.6119    -2.4171     1.0627 C.ar    
  29 C29            0.5047    -2.8625     2.1514 C.ar    
  30 F30            0.0814    -5.0172     3.0337 F       
  31 O31            4.2291    -4.1495     0.8943 O.3     
  32 C32            4.5693    -5.5088     1.1748 C.3     
  33 H33            2.6035     5.2376     1.0229 H       
  34 H34            3.4282     2.4371     0.9528 H       
  35 H35            1.4983     5.5652    -1.1438 H       
  36 H36            2.2700     5.0042    -2.6465 H       
  37 H37            1.6754     3.8218    -1.4562 H       
  38 H38            5.1089     6.2074    -0.5484 H       
  39 H39            4.3096     6.3793    -2.1295 H       
  40 H40            3.4974     6.9558    -0.6543 H       
  41 H41            3.9368     2.7623    -1.3791 H       
  42 H42            4.5314     3.9447    -2.5694 H       
  43 H43            5.3707     3.7508    -1.0118 H       
  44 H44            4.6899     6.6820     1.2218 H       
  45 H45            6.4731     5.5875     3.1189 H       
  46 H46            7.2379     5.4993     1.5141 H       
  47 H47            6.7629     7.0767     2.1881 H       
  48 H48           -1.2974    -2.0463     1.0902 H       
  49 H49           -2.1038    -0.7805     2.0491 H       
  50 H50           -1.8512    -0.3918    -0.9290 H       
  51 H51           -3.0766    -1.5301    -0.3227 H       
  52 H52           -3.6666     1.0311    -0.6354 H       
  53 H53           -4.2807     0.1303     0.7667 H       
  54 H54           -1.3467     3.0352     0.9478 H       
  55 H55           -1.6786     2.1042    -0.5340 H       
  56 H56           -4.4666     2.0381     2.1686 H       
  57 H57           -3.1083     3.1809     2.3007 H       
  58 H58           -4.0137     3.0472     0.7740 H       
  59 H59            2.4626    -5.6123     2.1537 H       
  60 H60            3.2754    -1.7380     0.5480 H       
  61 H61           -0.4676    -2.5283     2.4822 H       
  62 H62            5.5684    -5.7193     0.7933 H       
  63 H63            4.5496    -5.6734     2.2521 H       
  64 H64            3.8495    -6.1703     0.6928 H       
@<TRIPOS>BOND
   1    1    2 1
   2    1    3 2
   3    1   23 1
   4    2   19 1
   5    2    5 1
   6    3    4 1
   7    3    7 1
   8    4    5 2
   9    5    6 1
  10    6   29 ar
  11    6   28 ar
  12    7    8 2
  13    7   10 am
  14    9   10 1
  15    9   11 1
  16    9   15 1
  17    9   33 1
  18   10   34 1
  19   11   12 1
  20   11   13 1
  21   11   14 1
  22   12   35 1
  23   12   36 1
  24   12   37 1
  25   13   38 1
  26   13   39 1
  27   13   40 1
  28   14   41 1
  29   14   42 1
  30   14   43 1
  31   15   16 am
  32   15   17 2
  33   16   18 1
  34   16   44 1
  35   18   45 1
  36   18   46 1
  37   18   47 1
  38   19   20 1
  39   19   48 1
  40   19   49 1
  41   20   21 1
  42   20   50 1
  43   20   51 1
  44   21   22 1
  45   21   52 1
  46   21   53 1
  47   22   23 1
  48   22   24 1
  49   23   54 1
  50   23   55 1
  51   24   56 1
  52   24   57 1
  53   24   58 1
  54   25   26 ar
  55   25   30 1
  56   25   29 ar
  57   26   27 ar
  58   26   59 1
  59   27   28 ar
  60   27   31 1
  61   28   60 1
  62   29   61 1
  63   31   32 1
  64   32   62 1
  65   32   63 1
  66   32   64 1

#	End of record

