#	Name: ASD03330610
#	Creating user name:	WinNT
#	Creation time:	15. 06. 2019 20:37

#	Modifying user name:	WinNT
#	Modification time:	15. 06. 2019 20:37

#	Program:	/corina/corina34_cracker 3.40 0067  02.08.2006

@<TRIPOS>MOLECULE
ASD03330610
  63   65    0    0    0
SMALL
NO_CHARGES


@<TRIPOS>ATOM
   1 C1             0.3100     1.5900     1.4987 C.2     
   2 N2             0.3449     0.2857     1.8597 N.pl3   
   3 C3             1.5705     1.9346     1.1138 C.2     
   4 N4             2.3501     0.8374     1.2277 N.2     
   5 C5             1.6204    -0.1598     1.6698 C.2     
   6 C6             2.1005    -1.5367     1.9199 C.ar    
   7 C7             2.0055     3.2657     0.6547 C.2     
   8 O8             1.2053     4.1795     0.5941 O.2     
   9 C9             3.7225     4.7935    -0.1546 C.3     
  10 N10            3.2901     3.4703     0.3019 N.am    
  11 C11            3.4422     4.9331    -1.6522 C.3     
  12 C12            1.9434     4.7636    -1.9086 C.3     
  13 C13            3.8876     6.3175    -2.1275 C.3     
  14 C14            4.2154     3.8578    -2.4182 C.3     
  15 C15            5.1996     4.9538     0.0971 C.2     
  16 N16            5.7663     6.1747     0.0285 N.am    
  17 O17            5.8784     3.9841     0.3615 O.2     
  18 C18            7.2141     6.3208     0.1987 C.3     
  19 C19           -0.7909    -0.4851     2.3731 C.3     
  20 C20           -2.0120    -0.2354     1.4826 C.3     
  21 C21           -2.7686     0.9929     1.9784 C.3     
  22 N22           -1.8485     1.9889     2.5315 N.3     
  23 C23           -0.9099     2.4745     1.5091 C.3     
  24 C24           -2.5846     3.1037     3.1424 C.3     
  25 C25            2.8508    -2.2036     0.9514 C.ar    
  26 C26            3.2957    -3.4878     1.1907 C.ar    
  27 C27            2.9986    -4.1139     2.3879 C.ar    
  28 C28            2.2544    -3.4579     3.3525 C.ar    
  29 C29            1.8095    -2.1715     3.1280 C.ar    
  30 C30            3.1745    -1.5233    -0.3538 C.3     
  31 F31            3.9304    -2.3862    -1.1545 F       
  32 F32            1.9865    -1.1942    -1.0153 F       
  33 F33            3.9070    -0.3581    -0.1032 F       
  34 H34            3.1754     5.5626     0.3907 H       
  35 H35            3.9283     2.7414     0.3502 H       
  36 H36            1.3926     5.5297    -1.3629 H       
  37 H37            1.7438     4.8631    -2.9755 H       
  38 H38            1.6261     3.7773    -1.5700 H       
  39 H39            4.9248     6.4851    -1.8372 H       
  40 H40            3.8002     6.3747    -3.2125 H       
  41 H41            3.2551     7.0791    -1.6714 H       
  42 H42            3.8981     2.8715    -2.0796 H       
  43 H43            4.0158     3.9572    -3.4851 H       
  44 H44            5.2832     3.9785    -2.2355 H       
  45 H45            5.2157     6.9566    -0.1335 H       
  46 H46            7.5034     5.9511     1.1824 H       
  47 H47            7.7301     5.7473    -0.5713 H       
  48 H48            7.4858     7.3728     0.1115 H       
  49 H49           -0.5445    -1.5469     2.3640 H       
  50 H50           -1.0133    -0.1706     3.3928 H       
  51 H51           -1.6844    -0.0696     0.4563 H       
  52 H52           -2.6693    -1.1043     1.5167 H       
  53 H53           -3.3171     1.4352     1.1467 H       
  54 H54           -3.4751     0.6902     2.7513 H       
  55 H55           -0.6159     3.4981     1.7413 H       
  56 H56           -1.3896     2.4451     0.5308 H       
  57 H57           -3.2150     2.7253     3.9471 H       
  58 H58           -1.8774     3.8288     3.5452 H       
  59 H59           -3.2077     3.5843     2.3881 H       
  60 H60            3.8767    -4.0052     0.4417 H       
  61 H61            3.3487    -5.1191     2.5703 H       
  62 H62            2.0254    -3.9522     4.2850 H       
  63 H63            1.2290    -1.6603     3.8817 H       
@<TRIPOS>BOND
   1    1    2 1
   2    1    3 2
   3    1   23 1
   4    2   19 1
   5    2    5 1
   6    3    4 1
   7    3    7 1
   8    4    5 2
   9    5    6 1
  10    6   25 ar
  11    6   29 ar
  12    7    8 2
  13    7   10 am
  14    9   10 1
  15    9   11 1
  16    9   15 1
  17    9   34 1
  18   10   35 1
  19   11   12 1
  20   11   13 1
  21   11   14 1
  22   12   36 1
  23   12   37 1
  24   12   38 1
  25   13   39 1
  26   13   40 1
  27   13   41 1
  28   14   42 1
  29   14   43 1
  30   14   44 1
  31   15   16 am
  32   15   17 2
  33   16   18 1
  34   16   45 1
  35   18   46 1
  36   18   47 1
  37   18   48 1
  38   19   20 1
  39   19   49 1
  40   19   50 1
  41   20   21 1
  42   20   51 1
  43   20   52 1
  44   21   22 1
  45   21   53 1
  46   21   54 1
  47   22   23 1
  48   22   24 1
  49   23   55 1
  50   23   56 1
  51   24   57 1
  52   24   58 1
  53   24   59 1
  54   25   26 ar
  55   25   30 1
  56   26   27 ar
  57   26   60 1
  58   27   28 ar
  59   27   61 1
  60   28   29 ar
  61   28   62 1
  62   29   63 1
  63   30   31 1
  64   30   32 1
  65   30   33 1

#	End of record

