#	Name: ASD03320237
#	Creating user name:	WinNT
#	Creation time:	15. 06. 2019 20:36

#	Modifying user name:	WinNT
#	Modification time:	15. 06. 2019 20:36

#	Program:	/corina/corina34_cracker 3.40 0067  02.08.2006

@<TRIPOS>MOLECULE
ASD03320237
  41   42    0    0    0
SMALL
NO_CHARGES


@<TRIPOS>ATOM
   1 C1             1.0640    -0.4407     0.7519 C.ar    
   2 C2             0.0033    -0.0063    -0.0218 C.ar    
   3 C3             0.1285     1.1337    -0.7943 C.ar    
   4 C4             1.3142     1.8420    -0.7957 C.ar    
   5 C5             2.3812     1.4084    -0.0198 C.ar    
   6 C6             2.2521     0.2634     0.7553 C.ar    
   7 N7             3.5839     2.1235    -0.0193 N.am    
   8 C8             3.5687     3.4678    -0.1137 C.2     
   9 C9             4.8553     4.2453    -0.0077 C.3     
  10 C10            5.5919     4.1977    -1.3479 C.3     
  11 S11            7.2069     5.0063    -1.1793 S.3     
  12 N12            4.5568     5.6415     0.3377 N.4     
  13 C13            7.9163     4.8513    -2.8417 C.3     
  14 C14            9.2827     5.4864    -2.8659 C.ar    
  15 C15           10.4016     4.7306    -2.5694 C.ar    
  16 C16           11.6549     5.3132    -2.5916 C.ar    
  17 C17           11.7896     6.6514    -2.9107 C.ar    
  18 C18           10.6708     7.4070    -3.2081 C.ar    
  19 C19            9.4179     6.8234    -3.1901 C.ar    
  20 N20           -1.2685    -0.7635    -0.0234 N.pl3   
  21 O21           -1.3800    -1.7681     0.6563 O.2     
  22 O22           -2.2035    -0.3821    -0.7044 O.2     
  23 O23            2.5195     4.0520    -0.2839 O.2     
  24 H24            0.9616    -1.3290     1.3576 H       
  25 H25           -0.7017     1.4704    -1.3975 H       
  26 H26            1.4116     2.7319    -1.3998 H       
  27 H27            3.0800    -0.0762     1.3601 H       
  28 H28            4.4287     1.6516     0.0489 H       
  29 H29            5.4828     3.8054     0.7675 H       
  30 H30            5.7348     3.1594    -1.6472 H       
  31 H31            5.0031     4.7162    -2.1046 H       
  32 H32            4.0710     5.6729     1.2215 H       
  33 H33            5.4182     6.1620     0.4087 H       
  34 H34            3.9759     6.0487    -0.3799 H       
  35 H35            8.0011     3.7967    -3.1036 H       
  36 H36            7.2694     5.3535    -3.5610 H       
  37 H37           10.2964     3.6851    -2.3201 H       
  38 H38           12.5290     4.7229    -2.3593 H       
  39 H39           12.7688     7.1068    -2.9274 H       
  40 H40           10.7760     8.4527    -3.4571 H       
  41 H41            8.5442     7.4128    -3.4261 H       
@<TRIPOS>BOND
   1    1    2 ar
   2    1    6 ar
   3    1   24 1
   4    2    3 ar
   5    2   20 1
   6    3    4 ar
   7    3   25 1
   8    4    5 ar
   9    4   26 1
  10    5    6 ar
  11    5    7 1
  12    6   27 1
  13    7    8 am
  14    7   28 1
  15    8    9 1
  16    8   23 2
  17    9   10 1
  18    9   12 1
  19    9   29 1
  20   10   11 1
  21   10   30 1
  22   10   31 1
  23   11   13 1
  24   12   32 1
  25   12   33 1
  26   12   34 1
  27   13   14 1
  28   13   35 1
  29   13   36 1
  30   14   15 ar
  31   14   19 ar
  32   15   16 ar
  33   15   37 1
  34   16   17 ar
  35   16   38 1
  36   17   18 ar
  37   17   39 1
  38   18   19 ar
  39   18   40 1
  40   19   41 1
  41   20   21 2
  42   20   22 2

#	End of record

