#	Name: ASD07300983
#	Creating user name:	WinNT
#	Creation time:	15. 06. 2019 21:10

#	Modifying user name:	WinNT
#	Modification time:	15. 06. 2019 21:10

#	Program:	/corina/corina34_cracker 3.40 0067  02.08.2006

@<TRIPOS>MOLECULE
ASD07300983
  52   56    0    0    0
SMALL
NO_CHARGES


@<TRIPOS>ATOM
   1 N1            -0.0406     1.5296    -0.4927 N.pl3   
   2 N2             0.0138     0.1730    -0.8371 N.2     
   3 C3             1.2311    -0.0933    -1.2612 C.2     
   4 C4             1.9833     1.0962    -1.1956 C.2     
   5 C5             1.1761     2.0707    -0.7212 C.2     
   6 C6            -1.2147     2.2399     0.0202 C.3     
   7 C7            -4.7056    -0.1403    -0.6088 C.ar    
   8 C8            -0.7237     2.9696     4.2004 C.ar    
   9 C9            -1.6382     5.9605    -2.0353 C.ar    
  10 C10           -3.8604     0.1399    -1.6661 C.ar    
  11 C11           -2.7309     0.9104    -1.4626 C.ar    
  12 C12           -2.4464     1.4003    -0.2017 C.ar    
  13 C13           -3.2914     1.1197     0.8557 C.ar    
  14 C14           -4.4211     0.3496     0.6521 C.ar    
  15 C15           -1.7886     3.5312     3.5211 C.ar    
  16 C16           -1.9473     3.2954     2.1683 C.ar    
  17 C17           -1.0414     2.4974     1.4949 C.ar    
  18 C18            0.0232     1.9354     2.1743 C.ar    
  19 C19            0.1822     2.1717     3.5270 C.ar    
  20 C20           -0.5274     5.7296    -1.2456 C.ar    
  21 C21           -0.3905     4.5258    -0.5801 C.ar    
  22 C22           -1.3642     3.5525    -0.7048 C.ar    
  23 C23           -2.4748     3.7831    -1.4949 C.ar    
  24 C24           -2.6119     4.9872    -2.1600 C.ar    
  25 C25            1.7245    -1.4137    -1.7257 C.ar    
  26 C26            2.6562    -1.4879    -2.7590 C.ar    
  27 C27            3.1120    -2.7185    -3.1867 C.ar    
  28 C28            2.6451    -3.8767    -2.5919 C.ar    
  29 C29            1.7197    -3.8088    -1.5661 C.ar    
  30 C30            1.2618    -2.5833    -1.1263 C.ar    
  31 Br31           3.7995     1.2937    -1.6833 Br      
  32 H32            1.4545     3.1007    -0.5542 H       
  33 H33           -5.5905    -0.7386    -0.7687 H       
  34 H34           -0.5972     3.1575     5.2564 H       
  35 H35           -1.7473     6.9027    -2.5517 H       
  36 H36           -4.0825    -0.2432    -2.6512 H       
  37 H37           -2.0701     1.1287    -2.2886 H       
  38 H38           -3.0689     1.5022     1.8409 H       
  39 H39           -5.0813     0.1304     1.4783 H       
  40 H40           -2.4966     4.1543     4.0474 H       
  41 H41           -2.7797     3.7336     1.6378 H       
  42 H42            0.7308     1.3117     1.6482 H       
  43 H43            1.0140     1.7325     4.0578 H       
  44 H44            0.2336     6.4899    -1.1485 H       
  45 H45            0.4777     4.3452     0.0363 H       
  46 H46           -3.2354     3.0226    -1.5926 H       
  47 H47           -3.4796     5.1674    -2.7773 H       
  48 H48            3.0209    -0.5842    -3.2245 H       
  49 H49            3.8343    -2.7771    -3.9875 H       
  50 H50            3.0041    -4.8375    -2.9300 H       
  51 H51            1.3579    -4.7163    -1.1057 H       
  52 H52            0.5429    -2.5312    -0.3221 H       
@<TRIPOS>BOND
   1    1    2 1
   2    1    5 1
   3    1    6 1
   4    2    3 2
   5    3    4 1
   6    3   25 1
   7    4    5 2
   8    4   31 1
   9    5   32 1
  10    6   12 1
  11    6   17 1
  12    6   22 1
  13    7   10 ar
  14    7   14 ar
  15    7   33 1
  16    8   15 ar
  17    8   19 ar
  18    8   34 1
  19    9   20 ar
  20    9   24 ar
  21    9   35 1
  22   10   11 ar
  23   10   36 1
  24   11   12 ar
  25   11   37 1
  26   12   13 ar
  27   13   14 ar
  28   13   38 1
  29   14   39 1
  30   15   16 ar
  31   15   40 1
  32   16   17 ar
  33   16   41 1
  34   17   18 ar
  35   18   19 ar
  36   18   42 1
  37   19   43 1
  38   20   21 ar
  39   20   44 1
  40   21   22 ar
  41   21   45 1
  42   22   23 ar
  43   23   24 ar
  44   23   46 1
  45   24   47 1
  46   25   26 ar
  47   25   30 ar
  48   26   27 ar
  49   26   48 1
  50   27   28 ar
  51   27   49 1
  52   28   29 ar
  53   28   50 1
  54   29   30 ar
  55   29   51 1
  56   30   52 1

#	End of record

