#	Name: ASD02590065
#	Creating user name:	WinNT
#	Creation time:	15. 06. 2019 20:25

#	Modifying user name:	WinNT
#	Modification time:	15. 06. 2019 20:25

#	Program:	/corina/corina34_cracker 3.40 0067  02.08.2006

@<TRIPOS>MOLECULE
ASD02590065
  85   92    0    0    0
SMALL
NO_CHARGES


@<TRIPOS>ATOM
   1 N1             1.3195     0.7953    -0.0941 N.3     
   2 N2             9.3574    16.2556    13.7537 N.3     
   3 C3             7.8508     8.3377    -0.3995 C.ar    
   4 C4             6.4628     8.4364    -0.4496 C.ar    
   5 C5             8.4395     7.0828    -0.2965 C.ar    
   6 N6             7.7021     5.9945    -0.2464 N.ar    
   7 C7             6.3759     6.0481    -0.2916 C.ar    
   8 C8             5.7168     7.2732    -0.3948 C.ar    
   9 C9             5.5901     4.7967    -0.2326 C.2     
  10 N10            6.1197     3.5388    -0.1318 N.pl3   
  11 C11            5.0602     2.6505    -0.1047 C.ar    
  12 C12            3.8933     3.4301    -0.1930 C.ar    
  13 N13            4.2817     4.7261    -0.2632 N.2     
  14 C14            4.9674     1.2683    -0.0144 C.ar    
  15 C15            3.7310     0.6606    -0.0113 C.ar    
  16 C16            2.5686     1.4255    -0.0984 C.ar    
  17 C17            2.6432     2.8020    -0.1893 C.ar    
  18 O18           11.1171    12.7375     3.1253 O.3     
  19 C19           10.8361    13.2585     4.3478 C.ar    
  20 C20           11.3168    12.6453     5.5018 C.ar    
  21 C21           11.0069    13.2092     6.7259 C.ar    
  22 C22           10.2281    14.3659     6.7630 C.ar    
  23 N23            9.7874    14.9217     5.6403 N.ar    
  24 C24           10.0702    14.4129     4.4604 C.ar    
  25 C25            9.8894    14.9791     8.0655 C.2     
  26 N26           10.2663    14.5219     9.2345 N.2     
  27 C27            9.7824    15.3223    10.2146 C.ar    
  28 C28            9.0523    16.3492     9.5904 C.ar    
  29 N29            9.1404    16.1125     8.2308 N.pl3   
  30 C30            9.8807    15.2969    11.6100 C.ar    
  31 C31            9.2605    16.2790    12.3581 C.ar    
  32 C32            8.5383    17.2930    11.7305 C.ar    
  33 C33            8.4356    17.3285    10.3571 C.ar    
  34 O34            8.6212     9.4549    -0.4561 O.3     
  35 C35           10.0370     9.2703    -0.3989 C.3     
  36 C36           10.5874    13.4247     1.9899 C.3     
  37 C37           11.0058    12.6954     0.7115 C.3     
  38 O38           10.4041    11.3996     0.6837 O.3     
  39 C39           10.7323    10.6311    -0.4754 C.3     
  40 C40           10.6863    15.7828    14.1832 C.3     
  41 C41            0.3740     1.4903    -0.9869 C.3     
  42 C42            9.1296    17.6007    14.3233 C.3     
  43 C43           10.0471    17.6631    15.5698 C.3     
  44 C44           11.2945    16.8813    15.0802 C.3     
  45 C45           -0.1351     0.4533    -2.0100 C.3     
  46 C46            0.1138    -0.8986    -1.2908 C.3     
  47 C47            1.4343    -0.6117    -0.5335 C.3     
  48 H48            5.9799     9.3991    -0.5292 H       
  49 H49            9.5156     7.0002    -0.2576 H       
  50 H50            4.6381     7.3129    -0.4309 H       
  51 H51            7.0619     3.3127    -0.0876 H       
  52 H52            5.8639     0.6697     0.0530 H       
  53 H53            3.6617    -0.4149     0.0588 H       
  54 H54            1.7403     3.3908    -0.2570 H       
  55 H55           11.9176    11.7498     5.4423 H       
  56 H56           11.3629    12.7597     7.6412 H       
  57 H57            9.6944    14.8926     3.5688 H       
  58 H58            8.7408    16.6463     7.5263 H       
  59 H59           10.4386    14.5128    12.1002 H       
  60 H60            8.0567    18.0555    12.3246 H       
  61 H61            7.8745    18.1168     9.8774 H       
  62 H62           10.3018     8.7792     0.5375 H       
  63 H63           10.3569     8.6512    -1.2370 H       
  64 H64            9.4997    13.4491     2.0548 H       
  65 H65           10.9732    14.4439     1.9695 H       
  66 H66           10.6779    13.2670    -0.1567 H       
  67 H67           12.0907    12.5927     0.6903 H       
  68 H68           11.8116    10.4856    -0.5213 H       
  69 H69           10.3987    11.1598    -1.3683 H       
  70 H70           10.5854    14.8562    14.7484 H       
  71 H71           11.3217    15.6211    13.3124 H       
  72 H72           -0.4626     1.8820    -0.4083 H       
  73 H73            0.8825     2.3035    -1.5048 H       
  74 H74            9.4128    18.3700    13.6048 H       
  75 H75            8.0857    17.7178    14.6142 H       
  76 H76           10.3036    18.6938    15.8147 H       
  77 H77            9.5835    17.1649    16.4212 H       
  78 H78           11.8278    16.4400    15.9222 H       
  79 H79           11.9534    17.5296    14.5025 H       
  80 H80           -1.1978     0.5954    -2.2065 H       
  81 H81            0.4398     0.5096    -2.9344 H       
  82 H82           -0.6941    -1.1252    -0.5951 H       
  83 H83            0.2444    -1.7059    -2.0114 H       
  84 H84            2.2881    -0.7325    -1.2002 H       
  85 H85            1.5285    -1.2720     0.3286 H       
@<TRIPOS>BOND
   1    1   41 1
   2    1   16 1
   3    1   47 1
   4    2   40 1
   5    2   42 1
   6    2   31 1
   7    3    4 ar
   8    3    5 ar
   9    3   34 1
  10    4    8 ar
  11    4   48 1
  12    5    6 ar
  13    5   49 1
  14    6    7 ar
  15    7    8 ar
  16    7    9 1
  17    8   50 1
  18    9   10 1
  19    9   13 2
  20   10   11 1
  21   10   51 1
  22   11   12 ar
  23   11   14 ar
  24   12   13 1
  25   12   17 ar
  26   14   15 ar
  27   14   52 1
  28   15   16 ar
  29   15   53 1
  30   16   17 ar
  31   17   54 1
  32   18   19 1
  33   18   36 1
  34   19   20 ar
  35   19   24 ar
  36   20   21 ar
  37   20   55 1
  38   21   22 ar
  39   21   56 1
  40   22   23 ar
  41   22   25 1
  42   23   24 ar
  43   24   57 1
  44   25   26 2
  45   25   29 1
  46   26   27 1
  47   27   28 ar
  48   27   30 ar
  49   28   29 1
  50   28   33 ar
  51   29   58 1
  52   30   31 ar
  53   30   59 1
  54   31   32 ar
  55   32   33 ar
  56   32   60 1
  57   33   61 1
  58   34   35 1
  59   35   39 1
  60   35   62 1
  61   35   63 1
  62   36   37 1
  63   36   64 1
  64   36   65 1
  65   37   38 1
  66   37   66 1
  67   37   67 1
  68   38   39 1
  69   39   68 1
  70   39   69 1
  71   40   44 1
  72   40   70 1
  73   40   71 1
  74   41   45 1
  75   41   72 1
  76   41   73 1
  77   42   43 1
  78   42   74 1
  79   42   75 1
  80   43   44 1
  81   43   76 1
  82   43   77 1
  83   44   78 1
  84   44   79 1
  85   45   46 1
  86   45   80 1
  87   45   81 1
  88   46   47 1
  89   46   82 1
  90   46   83 1
  91   47   84 1
  92   47   85 1

#	End of record

