#	Name: ASD01410632
#	Creating user name:	WinNT
#	Creation time:	15. 06. 2019 19:18

#	Modifying user name:	WinNT
#	Modification time:	15. 06. 2019 19:18

#	Program:	/corina/corina34_cracker 3.40 0067  02.08.2006

@<TRIPOS>MOLECULE
ASD01410632
  74   76    0    0    0
SMALL
NO_CHARGES


@<TRIPOS>ATOM
   1 C1             2.7569     5.1682     3.3307 C.ar    
   2 C2             3.9287     5.2407     4.0709 C.ar    
   3 C3             4.9799     4.4023     3.7557 C.ar    
   4 N4             4.8817     3.5382     2.7637 N.ar    
   5 C5             3.7816     3.4395     2.0355 C.ar    
   6 C6             2.6851     4.2512     2.2963 C.ar    
   7 O7             3.7238     2.5367     1.0244 O.3     
   8 C8             4.8458     1.8226     0.7415 C.ar    
   9 C9             5.2742     0.8307     1.6155 C.ar    
  10 C10            6.4117     0.0999     1.3379 C.ar    
  11 C11            7.1369     0.3518     0.1816 C.ar    
  12 C12            6.7096     1.3520    -0.7050 C.ar    
  13 C13            5.5536     2.0819    -0.4180 C.ar    
  14 N14            8.2862    -0.3861    -0.0977 N.am    
  15 C15            8.2405    -1.3907    -0.9950 C.2     
  16 C16            9.5437    -0.0695     0.5840 C.3     
  17 O17            7.2224    -1.5998    -1.6199 O.2     
  18 C18            9.4546    -2.2542    -1.2219 C.3     
  19 C19            9.3704    -2.8988    -2.6069 C.3     
  20 C20           10.6030    -3.7755    -2.8371 C.3     
  21 C21           10.6582    -4.8688    -1.7682 C.3     
  22 C22           10.7424    -4.2241    -0.3832 C.3     
  23 C23            9.5098    -3.3475    -0.1529 C.3     
  24 C24           11.8908    -5.7454    -1.9985 C.3     
  25 C25           10.0308     1.3114     0.1402 C.3     
  26 C26            9.3172    -0.0683     2.0972 C.3     
  27 O27            8.9246    -1.3754     2.5210 O.3     
  28 C28            8.5993    -1.4628     3.9097 C.3     
  29 O29           10.3836     1.2698    -1.2439 O.3     
  30 C30           10.8540     2.5160    -1.7615 C.3     
  31 C31           11.2003     2.3548    -3.2430 C.3     
  32 C32            8.0790    -2.8668     4.2243 C.3     
  33 C33            1.4340     4.1353     1.4642 C.3     
  34 F34            0.4827     5.0532     1.9220 F       
  35 F35            1.7374     4.4065     0.1257 F       
  36 F36            0.9205     2.8384     1.5724 F       
  37 C37            7.4733     1.6272    -1.9353 C.2     
  38 O38            8.4070     0.9131    -2.2432 O.2     
  39 O39            7.1361     2.6706    -2.7184 O.3     
  40 H40            1.9186     5.8095     3.5594 H       
  41 H41            4.0177     5.9454     4.8844 H       
  42 H42            5.8941     4.4550     4.3284 H       
  43 H43            4.7143     0.6308     2.5171 H       
  44 H44            6.7383    -0.6693     2.0220 H       
  45 H45            5.2185     2.8533    -1.0956 H       
  46 H46           10.2936    -0.8184     0.3294 H       
  47 H47           10.3534    -1.6406    -1.1607 H       
  48 H48            8.4716    -3.5124    -2.6680 H       
  49 H49            9.3311    -2.1200    -3.3684 H       
  50 H50           10.5430    -4.2348    -3.8238 H       
  51 H51           11.5018    -3.1619    -2.7760 H       
  52 H52            9.7594    -5.4824    -1.8294 H       
  53 H53           10.7817    -5.0030     0.3783 H       
  54 H54           11.6412    -3.6105    -0.3221 H       
  55 H55            9.5698    -2.8882     0.8338 H       
  56 H56            8.6110    -3.9610    -0.2141 H       
  57 H57           12.7896    -5.1319    -1.9374 H       
  58 H58           11.9301    -6.5243    -1.2370 H       
  59 H59           11.8308    -6.2047    -2.9852 H       
  60 H60            9.2366     2.0426     0.2910 H       
  61 H61           10.9029     1.5955     0.7291 H       
  62 H62           10.2403     0.2155     2.6025 H       
  63 H63            8.5321     0.6455     2.3465 H       
  64 H64            9.4906    -1.2638     4.5049 H       
  65 H65            7.8307    -0.7282     4.1498 H       
  66 H66           10.0769     3.2722    -1.6502 H       
  67 H67           11.7432     2.8252    -1.2121 H       
  68 H68           11.9774     1.5986    -3.3543 H       
  69 H69           10.3112     2.0456    -3.7924 H       
  70 H70           11.5591     3.3053    -3.6378 H       
  71 H71            7.1400    -3.0330     3.6963 H       
  72 H72            8.8124    -3.6065     3.9030 H       
  73 H73            7.9141    -2.9611     5.2976 H       
  74 H74            7.6167     2.7673    -3.5520 H       
@<TRIPOS>BOND
   1    1    2 ar
   2    1    6 ar
   3    1   40 1
   4    2    3 ar
   5    2   41 1
   6    3    4 ar
   7    3   42 1
   8    4    5 ar
   9    5    6 ar
  10    5    7 1
  11    6   33 1
  12    7    8 1
  13    8    9 ar
  14    8   13 ar
  15    9   10 ar
  16    9   43 1
  17   10   11 ar
  18   10   44 1
  19   11   12 ar
  20   11   14 1
  21   12   13 ar
  22   12   37 1
  23   13   45 1
  24   14   15 am
  25   14   16 1
  26   15   17 2
  27   15   18 1
  28   16   25 1
  29   16   26 1
  30   16   46 1
  31   18   19 1
  32   18   23 1
  33   18   47 1
  34   19   20 1
  35   19   48 1
  36   19   49 1
  37   20   21 1
  38   20   50 1
  39   20   51 1
  40   21   22 1
  41   21   24 1
  42   21   52 1
  43   22   23 1
  44   22   53 1
  45   22   54 1
  46   23   55 1
  47   23   56 1
  48   24   57 1
  49   24   58 1
  50   24   59 1
  51   25   29 1
  52   25   60 1
  53   25   61 1
  54   26   27 1
  55   26   62 1
  56   26   63 1
  57   27   28 1
  58   28   32 1
  59   28   64 1
  60   28   65 1
  61   29   30 1
  62   30   31 1
  63   30   66 1
  64   30   67 1
  65   31   68 1
  66   31   69 1
  67   31   70 1
  68   32   71 1
  69   32   72 1
  70   32   73 1
  71   33   34 1
  72   33   35 1
  73   33   36 1
  74   37   38 2
  75   37   39 1
  76   39   74 1

#	End of record

