#	Name: ASD01814092
#	Creating user name:	WinNT
#	Creation time:	15. 06. 2019 19:31

#	Modifying user name:	WinNT
#	Modification time:	15. 06. 2019 19:31

#	Program:	/corina/corina34_cracker 3.40 0067  02.08.2006

@<TRIPOS>MOLECULE
ASD01814092
  50   54    0    0    0
SMALL
NO_CHARGES


@<TRIPOS>ATOM
   1 C1             1.1583     2.2494    -0.5153 C.ar    
   2 C2             0.7818     0.9151    -0.4999 C.ar    
   3 C3             1.7237    -0.0819    -0.3473 C.ar    
   4 C4             3.0706     0.2475    -0.2069 C.ar    
   5 C5             3.4508     1.6003    -0.2232 C.ar    
   6 C6             2.4866     2.5995    -0.3780 C.ar    
   7 N7             4.0208    -0.7400    -0.0528 N.pl3   
   8 C8             5.3259    -0.4752     0.0866 C.2     
   9 C9             5.8187     0.8141     0.0867 C.2     
  10 C10            4.8781     1.9351    -0.0738 C.2     
  11 O11            5.2633     3.0913    -0.0809 O.2     
  12 C12            7.2585     1.0636     0.2434 C.2     
  13 O13            7.7277     2.3274     0.2419 O.3     
  14 O14            8.0263     0.1303     0.3745 O.2     
  15 C15            3.5837    -2.1382    -0.0406 C.3     
  16 C16            3.4403    -2.6321    -1.4571 C.ar    
  17 C17            4.5225    -2.5815    -2.3197 C.ar    
  18 C18            4.3926    -3.0349    -3.6204 C.ar    
  19 C19            3.1766    -3.5402    -4.0590 C.ar    
  20 C20            2.0938    -3.5891    -3.1906 C.ar    
  21 C21            2.2300    -3.1402    -1.8917 C.ar    
  22 N22            3.0415    -3.9998    -5.3757 N.pl3   
  23 F23            1.3401    -1.3772    -0.3336 F       
  24 C24            1.9129    -4.5155    -5.9296 C.2     
  25 C25            2.1909    -4.8396    -7.2109 C.2     
  26 C26            3.5392    -4.5126    -7.4577 C.2     
  27 N27            4.0444    -4.0026    -6.3536 N.2     
  28 F28            5.7052    -2.0889    -1.8912 F       
  29 F29            2.8519     3.9001    -0.3941 F       
  30 C30            4.2612    -4.7032    -8.7390 C.ar    
  31 C31            5.6004    -4.3322    -8.8393 C.ar    
  32 C32            6.2610    -4.5161   -10.0416 C.ar    
  33 C33            5.5597    -5.0656   -11.1055 C.ar    
  34 C34            4.2317    -5.4112   -10.9361 C.ar    
  35 N35            3.6280    -5.2305    -9.7791 N.ar    
  36 H36            0.4098     3.0179    -0.6397 H       
  37 H37           -0.2603     0.6531    -0.6082 H       
  38 H38            6.0159    -1.2978     0.2033 H       
  39 H39            8.6820     2.4415     0.3480 H       
  40 H40            4.3223    -2.7453     0.4828 H       
  41 H41            2.6235    -2.2142     0.4697 H       
  42 H42            5.2362    -2.9954    -4.2937 H       
  43 H43            1.1465    -3.9816    -3.5299 H       
  44 H44            1.3878    -3.1787    -1.2167 H       
  45 H45            0.9623    -4.6436    -5.4333 H       
  46 H46            1.5020    -5.2733    -7.9206 H       
  47 H47            6.1158    -3.9068    -7.9908 H       
  48 H48            7.2990    -4.2378   -10.1495 H       
  49 H49            6.0465    -5.2215   -12.0569 H       
  50 H50            3.6830    -5.8390   -11.7622 H       
@<TRIPOS>BOND
   1    1    2 ar
   2    1    6 ar
   3    1   36 1
   4    2    3 ar
   5    2   37 1
   6    3    4 ar
   7    3   23 1
   8    4    5 ar
   9    4    7 1
  10    5    6 ar
  11    5   10 1
  12    6   29 1
  13    7    8 1
  14    7   15 1
  15    8    9 2
  16    8   38 1
  17    9   10 1
  18    9   12 1
  19   10   11 2
  20   12   13 1
  21   12   14 2
  22   13   39 1
  23   15   16 1
  24   15   40 1
  25   15   41 1
  26   16   17 ar
  27   16   21 ar
  28   17   18 ar
  29   17   28 1
  30   18   19 ar
  31   18   42 1
  32   19   20 ar
  33   19   22 1
  34   20   21 ar
  35   20   43 1
  36   21   44 1
  37   22   24 1
  38   22   27 1
  39   24   25 2
  40   24   45 1
  41   25   26 1
  42   25   46 1
  43   26   27 2
  44   26   30 1
  45   30   31 ar
  46   30   35 ar
  47   31   32 ar
  48   31   47 1
  49   32   33 ar
  50   32   48 1
  51   33   34 ar
  52   33   49 1
  53   34   35 ar
  54   34   50 1

#	End of record

