#	Name: ASD07300191
#	Creating user name:	WinNT
#	Creation time:	15. 06. 2019 21:09

#	Modifying user name:	WinNT
#	Modification time:	15. 06. 2019 21:09

#	Program:	/corina/corina34_cracker 3.40 0067  02.08.2006

@<TRIPOS>MOLECULE
ASD07300191
  76   81    0    0    0
SMALL
NO_CHARGES


@<TRIPOS>ATOM
   1 C1            -0.0169     1.3940     0.0097 C.ar    
   2 C2             0.0021    -0.0041     0.0020 C.ar    
   3 C3             1.2200    -0.6674    -0.0132 C.ar    
   4 C4             2.3808     0.0923    -0.0202 C.ar    
   5 C5             2.2878     1.4713    -0.0119 C.ar    
   6 N6             1.1160     2.0768     0.0026 N.ar    
   7 C7            -2.1140     0.6621     0.0347 C.2     
   8 N8            -1.3544     1.7733     0.0301 N.am    
   9 N9            -1.3235    -0.4280     0.0124 N.am    
  10 O10           -3.3304     0.6451     0.0519 O.2     
  11 C11           -1.7801    -1.8200     0.0088 C.3     
  12 O12           -2.2473    -2.1714     1.3128 O.3     
  13 C13           -3.5717    -1.7167     1.5977 C.3     
  14 C14           -3.9654    -2.1471     3.0122 C.3     
  15 Si15          -5.6920    -1.5543     3.3837 Si      
  16 C16           -6.8808    -2.2955     2.1556 C.3     
  17 C17           -6.1714    -2.0783     5.1060 C.3     
  18 C18           -5.7506     0.3038     3.2610 C.3     
  19 C19           -1.8311     3.0900     0.0441 C.ar    
  20 C20           -3.1993     3.3320     0.0641 C.ar    
  21 C21           -3.6714     4.6271     0.0779 C.ar    
  22 C22           -2.7743     5.6951     0.0722 C.ar    
  23 C23           -1.4014     5.4492     0.0525 C.ar    
  24 C24           -0.9350     4.1520     0.0437 C.ar    
  25 C25           -1.7363     9.0953     2.5910 C.2     
  26 N26           -1.8453     7.9396     2.0020 N.2     
  27 C27           -2.7730     8.0157     1.0166 C.ar    
  28 C28           -3.2632     9.3312     1.0141 C.ar    
  29 N29           -2.5877     9.9908     2.0221 N.pl3   
  30 C30           -3.2786     7.0882     0.0865 C.ar    
  31 C31           -4.2535     7.4885    -0.8182 C.ar    
  32 C32           -4.7262     8.7899    -0.8079 C.ar    
  33 C33           -4.2376     9.7075     0.0995 C.ar    
  34 C34           -0.8076     9.3955     3.7392 C.3     
  35 C35           -2.7571    11.3940     2.4074 C.3     
  36 C36           -1.8033    12.2510     1.6156 C.ar    
  37 C37           -2.1948    12.7783     0.3992 C.ar    
  38 C38           -1.3199    13.5643    -0.3271 C.ar    
  39 C39           -0.0537    13.8235     0.1631 C.ar    
  40 C40            0.3375    13.2969     1.3799 C.ar    
  41 C41           -0.5389    12.5145     2.1083 C.ar    
  42 H42            1.2635    -1.7465    -0.0190 H       
  43 H43            3.3476    -0.3890    -0.0316 H       
  44 H44            3.1908     2.0638    -0.0173 H       
  45 H45           -2.5908    -1.9346    -0.7107 H       
  46 H46           -0.9527    -2.4730    -0.2689 H       
  47 H47           -3.6059    -0.6296     1.5260 H       
  48 H48           -4.2672    -2.1503     0.8792 H       
  49 H49           -3.9311    -3.2342     3.0840 H       
  50 H50           -3.2699    -1.7134     3.7307 H       
  51 H51           -6.8465    -3.3826     2.2274 H       
  52 H52           -7.8910    -1.9486     2.3730 H       
  53 H53           -6.6003    -1.9889     1.1479 H       
  54 H54           -5.4759    -1.6446     5.8246 H       
  55 H55           -7.1816    -1.7315     5.3234 H       
  56 H56           -6.1372    -3.1654     5.1778 H       
  57 H57           -5.4701     0.6104     2.2533 H       
  58 H58           -6.7608     0.6506     3.4784 H       
  59 H59           -5.0550     0.7374     3.9796 H       
  60 H60           -3.8935     2.5047     0.0686 H       
  61 H61           -4.7349     4.8146     0.0928 H       
  62 H62           -0.7045     6.2743     0.0480 H       
  63 H63            0.1280     3.9610     0.0326 H       
  64 H64           -4.6449     6.7808    -1.5340 H       
  65 H65           -5.4839     9.0896    -1.5168 H       
  66 H66           -4.6143    10.7197     0.0987 H       
  67 H67            0.1515     9.7380     3.3508 H       
  68 H68           -1.2444    10.1730     4.3660 H       
  69 H69           -0.6583     8.4927     4.3314 H       
  70 H70           -3.7813    11.7059     2.2028 H       
  71 H71           -2.5487    11.5063     3.4714 H       
  72 H72           -3.1841    12.5758     0.0162 H       
  73 H73           -1.6256    13.9757    -1.2778 H       
  74 H74            0.6301    14.4370    -0.4047 H       
  75 H75            1.3269    13.4991     1.7628 H       
  76 H76           -0.2346    12.1061     3.0607 H       
@<TRIPOS>BOND
   1    1    2 ar
   2    1    6 ar
   3    1    8 1
   4    2    3 ar
   5    2    9 1
   6    3    4 ar
   7    3   42 1
   8    4    5 ar
   9    4   43 1
  10    5    6 ar
  11    5   44 1
  12    7    8 am
  13    7    9 am
  14    7   10 2
  15    8   19 1
  16    9   11 1
  17   11   12 1
  18   11   45 1
  19   11   46 1
  20   12   13 1
  21   13   14 1
  22   13   47 1
  23   13   48 1
  24   14   15 1
  25   14   49 1
  26   14   50 1
  27   15   16 1
  28   15   17 1
  29   15   18 1
  30   16   51 1
  31   16   52 1
  32   16   53 1
  33   17   54 1
  34   17   55 1
  35   17   56 1
  36   18   57 1
  37   18   58 1
  38   18   59 1
  39   19   20 ar
  40   19   24 ar
  41   20   21 ar
  42   20   60 1
  43   21   22 ar
  44   21   61 1
  45   22   23 ar
  46   22   30 1
  47   23   24 ar
  48   23   62 1
  49   24   63 1
  50   25   26 2
  51   25   29 1
  52   25   34 1
  53   26   27 1
  54   27   28 ar
  55   27   30 ar
  56   28   29 1
  57   28   33 ar
  58   29   35 1
  59   30   31 ar
  60   31   32 ar
  61   31   64 1
  62   32   33 ar
  63   32   65 1
  64   33   66 1
  65   34   67 1
  66   34   68 1
  67   34   69 1
  68   35   36 1
  69   35   70 1
  70   35   71 1
  71   36   37 ar
  72   36   41 ar
  73   37   38 ar
  74   37   72 1
  75   38   39 ar
  76   38   73 1
  77   39   40 ar
  78   39   74 1
  79   40   41 ar
  80   40   75 1
  81   41   76 1

#	End of record

