#	Name: ASD09116352
#	Creating user name:	WinNT
#	Creation time:	15. 06. 2019 21:21

#	Modifying user name:	WinNT
#	Modification time:	15. 06. 2019 21:21

#	Program:	/corina/corina34_cracker 3.40 0067  02.08.2006

@<TRIPOS>MOLECULE
ASD09116352
  78   85    0    0    0
SMALL
NO_CHARGES


@<TRIPOS>ATOM
   1 N1            -0.0498     1.4476    -0.3671 N.2     
   2 N2            -0.0671     0.1180    -0.8181 N.pl3   
   3 C3             1.2046     1.8301    -0.3511 C.2     
   4 N4             1.9747     0.8173    -0.7659 N.2     
   5 C5             1.2219    -0.2234    -1.0516 C.2     
   6 N6             1.6684    -1.4487    -1.5086 N.pl3   
   7 C7            -1.1911    -0.6917    -0.9914 C.ar    
   8 N8             1.6623     3.0896     0.0360 N.pl3   
   9 C9             3.0376     3.3420     0.1115 C.ar    
  10 C10            3.5198     4.6285    -0.0936 C.ar    
  11 C11            3.9184     2.3075     0.3969 C.ar    
  12 C12            5.2755     2.5557     0.4721 C.ar    
  13 C13            5.7593     3.8390     0.2619 C.ar    
  14 C14            4.8772     4.8772    -0.0189 C.ar    
  15 N15            7.1358     4.0904     0.3387 N.3     
  16 F16            5.3477     6.1269    -0.2241 F       
  17 N17           -1.1557    -1.6989    -1.8510 N.ar    
  18 N18           -2.1654    -2.4680    -2.0549 N.ar    
  19 C19           -3.3096    -2.2957    -1.4127 C.ar    
  20 C20           -3.4330    -1.2708    -0.4703 C.ar    
  21 C21           -2.3515    -0.4433    -0.2539 C.ar    
  22 C22           -4.4914    -3.1463    -1.6850 C.ar    
  23 C23           -5.7219    -2.5338    -1.9274 C.ar    
  24 C24           -5.8047    -1.0323    -1.9612 C.3     
  25 C25           -5.7826    -0.4416    -0.5540 C.3     
  26 C26           -4.7125    -1.1170     0.2994 C.3     
  27 C27           -4.3901    -4.5330    -1.6975 C.ar    
  28 C28           -5.5158    -5.2987    -1.9319 C.ar    
  29 C29           -6.7374    -4.6883    -2.1510 C.ar    
  30 C30           -6.8408    -3.3079    -2.1478 C.ar    
  31 C31            7.6541     4.6133    -0.9511 C.3     
  32 C32            9.1714     4.3375    -0.9044 C.3     
  33 C33            9.3312     3.1579     0.0923 C.3     
  34 C34            7.8954     2.8324     0.5536 C.3     
  35 C35            9.6158     3.7670    -2.2673 C.3     
  36 N36           10.5130     2.6333    -1.9272 N.3     
  37 C37            9.8570     1.9861    -0.7626 C.3     
  38 C38           10.6286     1.6974    -3.0536 C.3     
  39 C39           11.3268     2.3844    -4.2402 C.3     
  40 C40           12.6120     1.5789    -4.5219 C.3     
  41 C41           12.3148     0.1741    -3.9410 C.3     
  42 C42           11.5138     0.4983    -2.6555 C.3     
  43 H43            2.6168    -1.5989    -1.6459 H       
  44 H44            1.0334    -2.1586    -1.6922 H       
  45 H45            1.0279     3.7906     0.2528 H       
  46 H46            2.8342     5.4340    -0.3116 H       
  47 H47            3.5426     1.3083     0.5606 H       
  48 H48            5.9600     1.7505     0.6948 H       
  49 H49           -2.4020     0.3712     0.4535 H       
  50 H50           -4.9581    -0.6411    -2.5254 H       
  51 H51           -6.7293    -0.7372    -2.4573 H       
  52 H52           -5.5710     0.6259    -0.6162 H       
  53 H53           -6.7574    -0.5869    -0.0885 H       
  54 H54           -5.0669    -2.1012     0.6059 H       
  55 H55           -4.5266    -0.5116     1.1865 H       
  56 H56           -3.4363    -5.0091    -1.5244 H       
  57 H57           -5.4418    -6.3761    -1.9444 H       
  58 H58           -7.6157    -5.2920    -2.3256 H       
  59 H59           -7.7980    -2.8376    -2.3183 H       
  60 H60            7.1974     4.0832    -1.7868 H       
  61 H61            7.4650     5.6838    -1.0304 H       
  62 H62            9.7439     5.2159    -0.6065 H       
  63 H63            9.9897     3.4022     0.9259 H       
  64 H64            7.8882     2.5600     1.6090 H       
  65 H65            7.4758     2.0276    -0.0500 H       
  66 H66            8.7524     3.4123    -2.8302 H       
  67 H67           10.1574     4.5223    -2.8368 H       
  68 H68           10.5805     1.3984    -0.1974 H       
  69 H69            9.0308     1.3567    -1.0934 H       
  70 H70            9.6399     1.3495    -3.3526 H       
  71 H71           10.6773     2.3691    -5.1154 H       
  72 H72           11.5799     3.4123    -3.9804 H       
  73 H73           12.7961     1.5170    -5.5944 H       
  74 H74           13.4640     2.0297    -4.0130 H       
  75 H75           11.7113    -0.4110    -4.6348 H       
  76 H76           13.2406    -0.3473    -3.6981 H       
  77 H77           12.1885     0.7746    -1.8452 H       
  78 H78           10.8965    -0.3521    -2.3660 H       
@<TRIPOS>BOND
   1    1    2 1
   2    1    3 2
   3    2    7 1
   4    2    5 1
   5    3    4 1
   6    3    8 1
   7    4    5 2
   8    5    6 1
   9    6   43 1
  10    6   44 1
  11    7   17 ar
  12    7   21 ar
  13    8    9 1
  14    8   45 1
  15    9   10 ar
  16    9   11 ar
  17   10   14 ar
  18   10   46 1
  19   11   12 ar
  20   11   47 1
  21   12   13 ar
  22   12   48 1
  23   13   14 ar
  24   13   15 1
  25   14   16 1
  26   15   31 1
  27   15   34 1
  28   17   18 ar
  29   18   19 ar
  30   19   20 ar
  31   19   22 1
  32   20   21 ar
  33   20   26 1
  34   21   49 1
  35   22   23 ar
  36   22   27 ar
  37   23   24 1
  38   23   30 ar
  39   24   25 1
  40   24   50 1
  41   24   51 1
  42   25   26 1
  43   25   52 1
  44   25   53 1
  45   26   54 1
  46   26   55 1
  47   27   28 ar
  48   27   56 1
  49   28   29 ar
  50   28   57 1
  51   29   30 ar
  52   29   58 1
  53   30   59 1
  54   31   32 1
  55   31   60 1
  56   31   61 1
  57   32   33 1
  58   32   35 1
  59   32   62 1
  60   33   34 1
  61   33   37 1
  62   33   63 1
  63   34   64 1
  64   34   65 1
  65   35   36 1
  66   35   66 1
  67   35   67 1
  68   36   37 1
  69   36   38 1
  70   37   68 1
  71   37   69 1
  72   38   39 1
  73   38   42 1
  74   38   70 1
  75   39   40 1
  76   39   71 1
  77   39   72 1
  78   40   41 1
  79   40   73 1
  80   40   74 1
  81   41   42 1
  82   41   75 1
  83   41   76 1
  84   42   77 1
  85   42   78 1

#	End of record

