#	Name: ASD01900832
#	Creating user name:	WinNT
#	Creation time:	15. 06. 2019 19:52

#	Modifying user name:	WinNT
#	Modification time:	15. 06. 2019 19:52

#	Program:	/corina/corina34_cracker 3.40 0067  02.08.2006

@<TRIPOS>MOLECULE
ASD01900832
  32   34    0    0    0
SMALL
NO_CHARGES


@<TRIPOS>ATOM
   1 C1             0.3950     3.9792     0.6358 C.ar    
   2 C2             0.8286     5.0100     1.4912 C.ar    
   3 C3             2.1947     5.2656     1.6050 C.ar    
   4 C4             3.0680     4.4903     0.8679 C.ar    
   5 C5             2.5700     3.4897     0.0435 C.ar    
   6 N6             1.2799     3.2614    -0.0518 N.ar    
   7 N7            -1.4230     4.8978     1.5687 N.2     
   8 N8            -0.2918     5.5620     2.0540 N.pl3   
   9 C9            -1.0669     3.9635     0.7276 C.2     
  10 N10           -1.9266     3.0975     0.0448 N.pl3   
  11 C11           -3.3111     3.2651     0.1438 C.ar    
  12 C12           -3.8451     4.5293     0.3603 C.ar    
  13 C13           -5.2128     4.6924     0.4577 C.ar    
  14 C14           -6.0521     3.5969     0.3403 C.ar    
  15 C15           -5.5222     2.3361     0.1245 C.ar    
  16 C16           -4.1550     2.1690     0.0201 C.ar    
  17 S17           -5.8909     6.2953     0.7323 S.o2    
  18 O18           -6.7665     6.1208     1.8378 O.2     
  19 O19           -4.7556     7.1450     0.8240 O.2     
  20 C20           -6.8333     6.6526    -0.7759 C.3     
  21 F21           -7.3899     3.7588     0.4368 F       
  22 H22            2.5600     6.0493     2.2521 H       
  23 H23            4.1325     4.6614     0.9319 H       
  24 H24            3.2577     2.8865    -0.5306 H       
  25 H25           -0.2991     6.2934     2.6911 H       
  26 H26           -1.5624     2.3804    -0.4975 H       
  27 H27           -3.1910     5.3837     0.4527 H       
  28 H28           -6.1786     1.4833     0.0335 H       
  29 H29           -3.7424     1.1861    -0.1530 H       
  30 H30           -7.6100     5.8991    -0.9061 H       
  31 H31           -7.2929     7.6375    -0.6924 H       
  32 H32           -6.1633     6.6360    -1.6355 H       
@<TRIPOS>BOND
   1    1    2 ar
   2    1    6 ar
   3    1    9 1
   4    2    3 ar
   5    2    8 1
   6    3    4 ar
   7    3   22 1
   8    4    5 ar
   9    4   23 1
  10    5    6 ar
  11    5   24 1
  12    7    8 1
  13    7    9 2
  14    8   25 1
  15    9   10 1
  16   10   11 1
  17   10   26 1
  18   11   12 ar
  19   11   16 ar
  20   12   13 ar
  21   12   27 1
  22   13   14 ar
  23   13   17 1
  24   14   15 ar
  25   14   21 1
  26   15   16 ar
  27   15   28 1
  28   16   29 1
  29   17   18 2
  30   17   19 2
  31   17   20 1
  32   20   30 1
  33   20   31 1
  34   20   32 1

#	End of record

