#	Name: ASD01880165
#	Creating user name:	WinNT
#	Creation time:	15. 06. 2019 19:40

#	Modifying user name:	WinNT
#	Modification time:	15. 06. 2019 19:40

#	Program:	/corina/corina34_cracker 3.40 0067  02.08.2006

@<TRIPOS>MOLECULE
ASD01880165
  57   60    0    0    0
SMALL
NO_CHARGES


@<TRIPOS>ATOM
   1 C1            -0.0166     1.3765     0.0096 C.ar    
   2 C2             0.0021    -0.0041     0.0020 C.ar    
   3 C3            -1.1907    -0.7221     0.0090 C.ar    
   4 C4            -2.4029    -0.0685     0.0241 C.ar    
   5 C5            -2.4432     1.3214     0.0324 C.ar    
   6 C6            -1.2399     2.0497     0.0307 C.ar    
   7 O7             1.1904    -0.6651    -0.0128 O.3     
   8 C8             1.1383    -2.0932    -0.0200 C.3     
   9 C9             2.5612    -2.6553    -0.0366 C.3     
  10 C10            2.5055    -4.1843    -0.0442 C.3     
  11 C11            3.9283    -4.7464    -0.0608 C.3     
  12 O12            3.8763    -6.1745    -0.0680 O.3     
  13 C13            5.0632    -6.8347    -0.0828 C.ar    
  14 C14            5.0833    -8.2234    -0.0904 C.ar    
  15 C15            6.2859    -8.8968    -0.1060 C.ar    
  16 C16            7.4841    -8.1815    -0.1140 C.ar    
  17 C17            7.4600    -6.7862    -0.1062 C.ar    
  18 C18            6.2536    -6.1195    -0.0961 C.ar    
  19 C19            8.7768    -8.9006    -0.1301 C.2     
  20 N20            8.9462   -10.2064    -0.1388 N.2     
  21 N21           10.1969   -10.4972    -0.1530 N.2     
  22 N22           10.9083    -9.4223    -0.1545 N.2     
  23 N23           10.0116    -8.3396    -0.1448 N.pl3   
  24 C24            1.2754     2.1522     0.0014 C.3     
  25 C25            1.6989     2.4224    -1.4437 C.3     
  26 C26            3.0106     3.2099    -1.4520 C.3     
  27 N27           -3.4727     2.2388     0.0479 N.pl3   
  28 C28           -2.9636     3.5085     0.0509 C.2     
  29 C29           -1.6219     3.4639     0.0416 C.2     
  30 C30           -4.8988     1.9036     0.0596 C.3     
  31 H31           -1.1652    -1.8018     0.0023 H       
  32 H32           -3.3221    -0.6355     0.0290 H       
  33 H33            0.6201    -2.4423     0.8731 H       
  34 H34            0.6032    -2.4328    -0.9068 H       
  35 H35            3.0795    -2.3062    -0.9296 H       
  36 H36            3.0964    -2.3157     0.8502 H       
  37 H37            1.9872    -4.5334     0.8488 H       
  38 H38            1.9703    -4.5239    -0.9310 H       
  39 H39            4.4466    -4.3973    -0.9539 H       
  40 H40            4.4635    -4.4068     0.8260 H       
  41 H41            4.1556    -8.7763    -0.0839 H       
  42 H42            6.3008    -9.9767    -0.1115 H       
  43 H43            8.3854    -6.2294    -0.1124 H       
  44 H44            6.2342    -5.0397    -0.0904 H       
  45 H45           10.2293    -7.3944    -0.1437 H       
  46 H46            1.1338     3.0995     0.5217 H       
  47 H47            2.0498     1.5734     0.5048 H       
  48 H48            1.8405     1.4752    -1.9640 H       
  49 H49            0.9244     3.0012    -1.9471 H       
  50 H50            3.3123     3.4025    -2.4816 H       
  51 H51            2.8690     4.1572    -0.9317 H       
  52 H52            3.7850     2.6312    -0.9487 H       
  53 H53           -3.5537     4.4130     0.0622 H       
  54 H54           -0.9512     4.3104     0.0418 H       
  55 H55           -5.2426     1.8141     1.0901 H       
  56 H56           -5.4610     2.6900    -0.4440 H       
  57 H57           -5.0539     0.9573    -0.4586 H       
@<TRIPOS>BOND
   1    1    2 ar
   2    1   24 1
   3    1    6 ar
   4    2    3 ar
   5    2    7 1
   6    3    4 ar
   7    3   31 1
   8    4    5 ar
   9    4   32 1
  10    5    6 ar
  11    5   27 1
  12    6   29 1
  13    7    8 1
  14    8    9 1
  15    8   33 1
  16    8   34 1
  17    9   10 1
  18    9   35 1
  19    9   36 1
  20   10   11 1
  21   10   37 1
  22   10   38 1
  23   11   12 1
  24   11   39 1
  25   11   40 1
  26   12   13 1
  27   13   14 ar
  28   13   18 ar
  29   14   15 ar
  30   14   41 1
  31   15   16 ar
  32   15   42 1
  33   16   17 ar
  34   16   19 1
  35   17   18 ar
  36   17   43 1
  37   18   44 1
  38   19   20 2
  39   19   23 1
  40   20   21 1
  41   21   22 2
  42   22   23 1
  43   23   45 1
  44   24   25 1
  45   24   46 1
  46   24   47 1
  47   25   26 1
  48   25   48 1
  49   25   49 1
  50   26   50 1
  51   26   51 1
  52   26   52 1
  53   27   28 1
  54   27   30 1
  55   28   29 2
  56   28   53 1
  57   29   54 1
  58   30   55 1
  59   30   56 1
  60   30   57 1

#	End of record

