#	Name: ASD01870498
#	Creating user name:	WinNT
#	Creation time:	15. 06. 2019 19:39

#	Modifying user name:	WinNT
#	Modification time:	15. 06. 2019 19:39

#	Program:	/corina/corina34_cracker 3.40 0067  02.08.2006

@<TRIPOS>MOLECULE
ASD01870498
  40   43    0    0    0
SMALL
NO_CHARGES


@<TRIPOS>ATOM
   1 C1            -0.0303     1.3983    -0.2321 C.ar    
   2 C2            -0.0273     0.0160    -0.1044 C.ar    
   3 C3             1.1514    -0.6617     0.1405 C.ar    
   4 C4             2.3477     0.0287     0.2626 C.ar    
   5 C5             2.3612     1.4083     0.1376 C.ar    
   6 C6             1.1592     2.1016    -0.1128 C.ar    
   7 C7             3.4165     2.4409     0.2059 C.2     
   8 N8             2.8510     3.6451     0.0069 N.am    
   9 C9             1.5247     3.5309    -0.1870 C.2     
  10 O10            0.7564     4.4493    -0.3905 O.2     
  11 O11            4.5965     2.2364     0.4081 O.2     
  12 C12            3.5521     4.8608     0.0033 C.ar    
  13 C13            4.0823     5.3527    -1.1817 C.ar    
  14 C14            4.7721     6.5485    -1.1857 C.ar    
  15 C15            4.9364     7.2599    -0.0039 C.ar    
  16 C16            4.4063     6.7684     1.1818 C.ar    
  17 C17            3.7107     5.5747     1.1846 C.ar    
  18 Cl18           3.0416     4.9631     2.6651 Cl      
  19 N19            5.6365     8.4716    -0.0082 N.am    
  20 C20            6.4093     8.8071     1.0438 C.2     
  21 C21            7.2265    10.0325     0.9967 C.2     
  22 O22            6.4323     8.0984     2.0320 O.2     
  23 N23            8.0492    10.4847     1.9901 N.pl3   
  24 C24            8.6128    11.6394     1.5455 C.2     
  25 C25            8.1265    11.8661     0.3006 C.2     
  26 N26            7.2934    10.8761    -0.0113 N.2     
  27 C27            8.2798     9.8463     3.2884 C.3     
  28 Cl28          -1.5146     2.2418    -0.5469 Cl      
  29 H29           -0.9526    -0.5332    -0.1967 H       
  30 H30            1.1409    -1.7373     0.2379 H       
  31 H31            3.2655    -0.5070     0.4547 H       
  32 H32            3.9554     4.7996    -2.1005 H       
  33 H33            5.1843     6.9308    -2.1078 H       
  34 H34            4.5339     7.3213     2.1007 H       
  35 H35            5.5655     9.0701    -0.7683 H       
  36 H36            9.3150    12.2594     2.0830 H       
  37 H37            8.3759    12.7050    -0.3321 H       
  38 H38            9.1165     9.1523     3.2085 H       
  39 H39            8.5099    10.6088     4.0325 H       
  40 H40            7.3845     9.3027     3.5901 H       
@<TRIPOS>BOND
   1    1    2 ar
   2    1    6 ar
   3    1   28 1
   4    2    3 ar
   5    2   29 1
   6    3    4 ar
   7    3   30 1
   8    4    5 ar
   9    4   31 1
  10    5    7 1
  11    5    6 ar
  12    6    9 1
  13    7    8 am
  14    7   11 2
  15    8    9 am
  16    8   12 1
  17    9   10 2
  18   12   13 ar
  19   12   17 ar
  20   13   14 ar
  21   13   32 1
  22   14   15 ar
  23   14   33 1
  24   15   16 ar
  25   15   19 1
  26   16   17 ar
  27   16   34 1
  28   17   18 1
  29   19   20 am
  30   19   35 1
  31   20   21 1
  32   20   22 2
  33   21   23 1
  34   21   26 2
  35   23   24 1
  36   23   27 1
  37   24   25 2
  38   24   36 1
  39   25   26 1
  40   25   37 1
  41   27   38 1
  42   27   39 1
  43   27   40 1

#	End of record

