#	Name: ASD01812979
#	Creating user name:	WinNT
#	Creation time:	15. 06. 2019 19:29

#	Modifying user name:	WinNT
#	Modification time:	15. 06. 2019 19:29

#	Program:	/corina/corina34_cracker 3.40 0067  02.08.2006

@<TRIPOS>MOLECULE
ASD01812979
  51   55    0    0    0
SMALL
NO_CHARGES


@<TRIPOS>ATOM
   1 N1            -0.0158     1.3147     0.0093 N.ar    
   2 C2             0.0021    -0.0041     0.0020 C.ar    
   3 C3             1.1989    -0.7033    -0.0127 C.ar    
   4 C4             2.3829    -0.0013    -0.0202 C.ar    
   5 C5             2.3448     1.3978    -0.0128 C.ar    
   6 C6             1.0955     2.0332     0.0025 C.ar    
   7 C7             3.8373    -0.3889    -0.0363 C.3     
   8 N8             4.5955     0.8684    -0.0373 N.am    
   9 C9             3.7280     1.8961    -0.0237 C.2     
  10 C10            6.0558     0.9844    -0.0504 C.3     
  11 C11            6.5432     1.0311    -1.4757 C.ar    
  12 O12            1.0255     3.3856     0.0100 O.3     
  13 O13            4.0429     3.0706    -0.0212 O.2     
  14 C14            6.6750     2.2464    -2.1313 C.ar    
  15 C15            7.1266     2.2455    -3.4403 C.ar    
  16 C16            7.4312     1.0312    -4.0503 C.ar    
  17 N17            7.2915    -0.1099    -3.3881 N.ar    
  18 C18            6.8691    -0.1372    -2.1409 C.ar    
  19 C19           -0.2795     3.9677     0.0251 C.3     
  20 C20            7.9158     1.0134    -5.4526 C.ar    
  21 C21            8.1705     2.2035    -6.1391 C.ar    
  22 C22            8.6257     2.1414    -7.4408 C.ar    
  23 N23            8.8201     0.9803    -8.0353 N.ar    
  24 C24            8.5919    -0.1657    -7.4229 C.ar    
  25 C25            8.1355    -0.1944    -6.1210 C.ar    
  26 C26            8.8329    -1.4607    -8.1550 C.3     
  27 C27           -0.3384     5.3295     0.7371 C.3     
  28 C28           -0.6345     4.7177    -1.2696 C.3     
  29 C29           -1.2948     5.7829    -0.3785 C.3     
  30 H30           -0.9309    -0.5480     0.0080 H       
  31 H31            1.2023    -1.7833    -0.0178 H       
  32 H32            4.0797    -0.9721     0.8522 H       
  33 H33            4.0624    -0.9631    -0.9351 H       
  34 H34            6.3524     1.8979     0.4651 H       
  35 H35            6.4932     0.1235     0.4552 H       
  36 H36            6.4305     3.1724    -1.6321 H       
  37 H37            7.2405     3.1736    -3.9809 H       
  38 H38            6.7716    -1.0849    -1.6321 H       
  39 H39           -1.0503     3.2701     0.3526 H       
  40 H40            8.0132     3.1577    -5.6585 H       
  41 H41            8.8250     3.0558    -7.9797 H       
  42 H42            7.9511    -1.1362    -5.6256 H       
  43 H43            9.8608    -1.7845    -7.9918 H       
  44 H44            8.1484    -2.2222    -7.7812 H       
  45 H45            8.6637    -1.3121    -9.2215 H       
  46 H46           -0.8044     5.2877     1.7216 H       
  47 H47            0.6126     5.8621     0.7402 H       
  48 H48            0.2355     5.0830    -1.8152 H       
  49 H49           -1.3396     4.1820    -1.9052 H       
  50 H50           -2.3441     5.5821    -0.1624 H       
  51 H51           -1.1191     6.8044    -0.7158 H       
@<TRIPOS>BOND
   1    1    2 ar
   2    1    6 ar
   3    2    3 ar
   4    2   30 1
   5    3    4 ar
   6    3   31 1
   7    4    7 1
   8    4    5 ar
   9    5    6 ar
  10    5    9 1
  11    6   12 1
  12    7    8 1
  13    7   32 1
  14    7   33 1
  15    8    9 am
  16    8   10 1
  17    9   13 2
  18   10   11 1
  19   10   34 1
  20   10   35 1
  21   11   14 ar
  22   11   18 ar
  23   12   19 1
  24   14   15 ar
  25   14   36 1
  26   15   16 ar
  27   15   37 1
  28   16   17 ar
  29   16   20 1
  30   17   18 ar
  31   18   38 1
  32   19   27 1
  33   19   28 1
  34   19   39 1
  35   20   21 ar
  36   20   25 ar
  37   21   22 ar
  38   21   40 1
  39   22   23 ar
  40   22   41 1
  41   23   24 ar
  42   24   25 ar
  43   24   26 1
  44   25   42 1
  45   26   43 1
  46   26   44 1
  47   26   45 1
  48   27   29 1
  49   27   46 1
  50   27   47 1
  51   28   29 1
  52   28   48 1
  53   28   49 1
  54   29   50 1
  55   29   51 1

#	End of record

