#	Name: ASD01412007
#	Creating user name:	WinNT
#	Creation time:	15. 06. 2019 19:19

#	Modifying user name:	WinNT
#	Modification time:	15. 06. 2019 19:19

#	Program:	/corina/corina34_cracker 3.40 0067  02.08.2006

@<TRIPOS>MOLECULE
ASD01412007
  75   79    0    0    0
SMALL
NO_CHARGES


@<TRIPOS>ATOM
   1 C1            -1.1722     3.2499    -0.6269 C.ar    
   2 C2            -0.9747     1.9111    -1.0227 C.ar    
   3 C3            -2.0434     1.0034    -0.9791 C.ar    
   4 C4            -3.2694     1.4148    -0.5551 C.ar    
   5 C5            -3.4751     2.7447    -0.1594 C.ar    
   6 C6            -2.4235     3.6584    -0.1921 C.ar    
   7 N7             0.0346     3.9029    -0.7714 N.pl3   
   8 C8             0.9683     3.0082    -1.2437 C.2     
   9 C9             0.3822     1.7917    -1.4050 C.2     
  10 C10            1.0578     0.5396    -1.9019 C.3     
  11 C11            0.9696    -0.5476    -0.8290 C.3     
  12 C12            1.6555    -1.8188    -1.3335 C.3     
  13 C13            0.9600    -2.3021    -2.6077 C.3     
  14 C14            1.0482    -1.2149    -3.6806 C.3     
  15 C15            0.3623     0.0563    -3.1761 C.3     
  16 C16           -4.8097     3.1770     0.2977 C.2     
  17 O17           -4.9910     4.3293     0.6413 O.2     
  18 N18           -5.8280     2.2948     0.3343 N.am    
  19 C19           -7.1531     2.7240     0.7881 C.3     
  20 C20           -8.1050     1.5569     0.7342 C.2     
  21 C21           -7.0579     3.2385     2.2258 C.3     
  22 C22           -7.6659     3.8427    -0.1210 C.3     
  23 C23           -8.8166    -0.4851    -0.2482 C.ar    
  24 O24           -8.9747     1.4445     1.5719 O.2     
  25 C25           -9.1916    -1.0739     0.9557 C.ar    
  26 C26          -10.0116    -2.1790     0.9576 C.ar    
  27 C27          -10.4691    -2.7107    -0.2542 C.ar    
  28 C28          -10.0895    -2.1147    -1.4630 C.ar    
  29 C29           -9.2688    -1.0102    -1.4552 C.ar    
  30 C30          -11.3444    -3.8909    -0.2574 C.2     
  31 C31          -12.3917    -3.9575     0.5936 C.2     
  32 N32           -7.9897     0.6380    -0.2450 N.am    
  33 C33            0.2816     5.3156    -0.4722 C.3     
  34 C34            2.3787     3.3193    -1.5290 C.2     
  35 S35            3.1409     4.8939    -1.3204 S.3     
  36 C36            4.6688     4.2242    -1.8892 C.2     
  37 C37            4.4787     2.9301    -2.1737 C.2     
  38 N38            3.2663     2.4720    -1.9715 N.2     
  39 C39          -12.7897    -2.8064     1.3194 C.2     
  40 O40          -12.2157    -1.7483     1.1440 O.2     
  41 O41          -13.8050    -2.8846     2.2046 O.3     
  42 H42           -1.8933    -0.0222    -1.2824 H       
  43 H43           -4.0895     0.7128    -0.5234 H       
  44 H44           -2.5843     4.6817     0.1133 H       
  45 H45            2.1047     0.7529    -2.1179 H       
  46 H46            1.4650    -0.2032     0.0788 H       
  47 H47           -0.0773    -0.7608    -0.6130 H       
  48 H48            2.7024    -1.6055    -1.5495 H       
  49 H49            1.5926    -2.5933    -0.5691 H       
  50 H50            1.4487    -3.2077    -2.9671 H       
  51 H51           -0.0868    -2.5154    -2.3917 H       
  52 H52            2.0951    -1.0017    -3.8966 H       
  53 H53            0.5528    -1.5593    -4.5884 H       
  54 H54           -0.6845    -0.1570    -2.9601 H       
  55 H55            0.4252     0.8308    -3.9405 H       
  56 H56           -5.6834     1.3756     0.0602 H       
  57 H57           -6.3695     4.0826     2.2648 H       
  58 H58           -8.0439     3.5578     2.5635 H       
  59 H59           -6.6926     2.4415     2.8735 H       
  60 H60           -7.7337     3.4762    -1.1453 H       
  61 H61           -8.6518     4.1621     0.2166 H       
  62 H62           -6.9774     4.6869    -0.0820 H       
  63 H63           -8.8383    -0.6631     1.8899 H       
  64 H64          -10.3016    -2.6357     1.8923 H       
  65 H65          -10.4398    -2.5217    -2.4001 H       
  66 H66           -8.9759    -0.5495    -2.3871 H       
  67 H67          -11.1506    -4.7051    -0.9399 H       
  68 H68          -12.9258    -4.8875     0.7209 H       
  69 H69           -7.3316     0.7578    -0.9475 H       
  70 H70            0.5932     5.4177     0.5673 H       
  71 H71            1.0677     5.6934    -1.1259 H       
  72 H72           -0.6324     5.8867    -0.6353 H       
  73 H73            5.5982     4.7649    -1.9910 H       
  74 H74            5.2753     2.3010    -2.5425 H       
  75 H75          -14.0035    -2.0497     2.6502 H       
@<TRIPOS>BOND
   1    1    2 ar
   2    1    7 1
   3    1    6 ar
   4    2    3 ar
   5    2    9 1
   6    3    4 ar
   7    3   42 1
   8    4    5 ar
   9    4   43 1
  10    5    6 ar
  11    5   16 1
  12    6   44 1
  13    7    8 1
  14    7   33 1
  15    8    9 2
  16    8   34 1
  17    9   10 1
  18   10   11 1
  19   10   15 1
  20   10   45 1
  21   11   12 1
  22   11   46 1
  23   11   47 1
  24   12   13 1
  25   12   48 1
  26   12   49 1
  27   13   14 1
  28   13   50 1
  29   13   51 1
  30   14   15 1
  31   14   52 1
  32   14   53 1
  33   15   54 1
  34   15   55 1
  35   16   17 2
  36   16   18 am
  37   18   19 1
  38   18   56 1
  39   19   20 1
  40   19   21 1
  41   19   22 1
  42   20   24 2
  43   20   32 am
  44   21   57 1
  45   21   58 1
  46   21   59 1
  47   22   60 1
  48   22   61 1
  49   22   62 1
  50   23   25 ar
  51   23   29 ar
  52   23   32 1
  53   25   26 ar
  54   25   63 1
  55   26   27 ar
  56   26   64 1
  57   27   28 ar
  58   27   30 1
  59   28   29 ar
  60   28   65 1
  61   29   66 1
  62   30   31 2
  63   30   67 1
  64   31   39 1
  65   31   68 1
  66   32   69 1
  67   33   70 1
  68   33   71 1
  69   33   72 1
  70   34   35 1
  71   34   38 2
  72   35   36 1
  73   36   37 2
  74   36   73 1
  75   37   38 1
  76   37   74 1
  77   39   40 2
  78   39   41 1
  79   41   75 1

#	End of record

