#	Name: ASD01882170
#	Creating user name:	WinNT
#	Creation time:	15. 06. 2019 19:44

#	Modifying user name:	WinNT
#	Modification time:	15. 06. 2019 19:44

#	Program:	/corina/corina34_cracker 3.40 0067  02.08.2006

@<TRIPOS>MOLECULE
ASD01882170
  22   23    0    0    0
SMALL
NO_CHARGES


@<TRIPOS>ATOM
   1 C1            -0.0178     1.4614     0.0101 C.2     
   2 C2             0.0021    -0.0041     0.0020 C.2     
   3 C3             1.2363    -0.6460    -0.0132 C.2     
   4 C4             2.4065     0.1218    -0.0203 C.2     
   5 C5             2.3560     1.4707    -0.0125 C.2     
   6 N6             1.1714     2.1439     0.0024 N.pl3   
   7 N7            -1.0000     2.3434     0.0295 N.2     
   8 C8            -0.4828     3.5767     0.0282 C.2     
   9 C9             0.8631     3.4791     0.0125 C.2     
  10 C10           -1.2169    -0.7555     0.0101 C.1     
  11 N11           -2.1839    -1.3516     0.0165 N.1     
  12 C12            1.8432     4.6238     0.0093 C.3     
  13 C13            2.0932     5.0853     1.4465 C.3     
  14 F14            2.6177     4.0243     2.1923 F       
  15 F15            3.0031     6.1479     1.4435 F       
  16 F16            0.8872     5.5056     2.0177 F       
  17 Cl17           1.3238    -2.3798    -0.0228 Cl      
  18 H18            3.3662    -0.3734    -0.0317 H       
  19 H19            3.2791     2.0312    -0.0183 H       
  20 H20           -1.0479     4.4971     0.0416 H       
  21 H21            2.7828     4.2964    -0.4358 H       
  22 H22            1.4345     5.4505    -0.5719 H       
@<TRIPOS>BOND
   1    1    2 1
   2    1    6 1
   3    1    7 2
   4    2    3 2
   5    2   10 1
   6    3    4 1
   7    3   17 1
   8    4    5 2
   9    4   18 1
  10    5    6 1
  11    5   19 1
  12    6    9 1
  13    7    8 1
  14    8    9 2
  15    8   20 1
  16    9   12 1
  17   10   11 3
  18   12   13 1
  19   12   21 1
  20   12   22 1
  21   13   14 1
  22   13   15 1
  23   13   16 1

#	End of record

