#	Name: ASD01883305
#	Creating user name:	WinNT
#	Creation time:	15. 06. 2019 19:46

#	Modifying user name:	WinNT
#	Modification time:	15. 06. 2019 19:46

#	Program:	/corina/corina34_cracker 3.40 0067  02.08.2006

@<TRIPOS>MOLECULE
ASD01883305
  41   43    0    0    0
SMALL
NO_CHARGES


@<TRIPOS>ATOM
   1 N1            -0.0162     1.3417     0.0094 N.am    
   2 C2             0.0021    -0.0041     0.0020 C.2     
   3 C3            -1.2161    -0.7274     0.0098 C.2     
   4 C4            -2.4260    -0.0112     0.0252 C.2     
   5 C5            -2.3786     1.3967     0.0323 C.2     
   6 C6            -1.1851     2.0324     0.0299 C.2     
   7 O7             1.0657    -0.6000    -0.0117 O.2     
   8 C8            -1.2152    -2.1594     0.0016 C.1     
   9 N9            -1.2144    -3.2953    -0.0049 N.1     
  10 C10            1.2512     2.0764     0.0013 C.3     
  11 C11            1.6787     2.3399    -1.4440 C.3     
  12 C12            3.0023     3.1072    -1.4525 C.3     
  13 C13            4.1049     2.2287    -0.8581 C.3     
  14 C14            3.3668     3.4795    -2.8911 C.3     
  15 C15           -3.7220    -0.7215     0.0332 C.ar    
  16 C16           -4.0786    -1.5142     1.1328 C.ar    
  17 C17           -5.2706    -2.1704     1.1456 C.ar    
  18 C18           -6.1556    -2.0651     0.0653 C.ar    
  19 C19           -5.8183    -1.2786    -1.0424 C.ar    
  20 C20           -4.5856    -0.5982    -1.0445 C.ar    
  21 S21           -7.7386    -2.7913    -0.1864 S.3     
  22 C22           -7.9130    -2.0320    -1.7565 C.2     
  23 C23           -6.8619    -1.2962    -2.0557 C.2     
  24 H24           -3.2950     1.9681     0.0441 H       
  25 H25           -1.1611     3.1121     0.0358 H       
  26 H26            1.1242     3.0258     0.5214 H       
  27 H27            2.0168     1.4859     0.5046 H       
  28 H28            1.8057     1.3905    -1.9642 H       
  29 H29            0.9132     2.9304    -1.9474 H       
  30 H30            2.9002     4.0146    -0.8572 H       
  31 H31            4.2071     1.3214    -1.4534 H       
  32 H32            5.0479     2.7754    -0.8642 H       
  33 H33            3.8453     1.9635     0.1668 H       
  34 H34            2.5813     4.1054    -3.3146 H       
  35 H35            4.3098     4.0262    -2.8971 H       
  36 H36            3.4690     2.5722    -3.4864 H       
  37 H37           -3.4052    -1.6046     1.9723 H       
  38 H38           -5.5367    -2.7789     1.9973 H       
  39 H39           -4.3085     0.0133    -1.8904 H       
  40 H40           -8.7734    -2.1525    -2.3980 H       
  41 H41           -6.7813    -0.7476    -2.9825 H       
@<TRIPOS>BOND
   1    1    2 am
   2    1   10 1
   3    1    6 1
   4    2    3 1
   5    2    7 2
   6    3    4 2
   7    3    8 1
   8    4    5 1
   9    4   15 1
  10    5    6 2
  11    5   24 1
  12    6   25 1
  13    8    9 3
  14   10   11 1
  15   10   26 1
  16   10   27 1
  17   11   12 1
  18   11   28 1
  19   11   29 1
  20   12   13 1
  21   12   14 1
  22   12   30 1
  23   13   31 1
  24   13   32 1
  25   13   33 1
  26   14   34 1
  27   14   35 1
  28   14   36 1
  29   15   16 ar
  30   15   20 ar
  31   16   17 ar
  32   16   37 1
  33   17   18 ar
  34   17   38 1
  35   18   19 ar
  36   18   21 1
  37   19   20 ar
  38   19   23 1
  39   20   39 1
  40   21   22 1
  41   22   23 2
  42   22   40 1
  43   23   41 1

#	End of record

