#	Name: ASD05790015
#	Creating user name:	WinNT
#	Creation time:	15. 06. 2019 21:03

#	Modifying user name:	WinNT
#	Modification time:	15. 06. 2019 21:03

#	Program:	/corina/corina34_cracker 3.40 0067  02.08.2006

@<TRIPOS>MOLECULE
ASD05790015
  49   52    0    0    0
SMALL
NO_CHARGES


@<TRIPOS>ATOM
   1 C1            -0.1753     1.4747    -0.5693 C.2     
   2 C2            -0.1532    -0.0033    -0.5732 C.ar    
   3 C3             0.8975    -0.6863    -1.1869 C.ar    
   4 C4             0.9114    -2.0707    -1.1865 C.ar    
   5 C5            -0.1178    -2.7759    -0.5769 C.ar    
   6 C6            -1.1597    -2.1006     0.0312 C.ar    
   7 C7            -1.1803    -0.7208     0.0421 C.ar    
   8 O8             0.7229     2.0974    -1.1015 O.2     
   9 N9            -1.1942     2.1319     0.0193 N.am    
  10 C10           -1.1619     3.5243     0.1191 C.ar    
  11 C11           -2.3411     4.2545     0.0191 C.ar    
  12 C12           -2.3128     5.6284     0.1176 C.ar    
  13 C13           -1.0980     6.2876     0.3182 C.ar    
  14 C14            0.0844     5.5513     0.4183 C.ar    
  15 C15            0.0486     4.1773     0.3242 C.ar    
  16 O16           -2.1303     8.5756     0.3440 O.3     
  17 C17           -1.0639     7.7608     0.4238 C.2     
  18 N18            0.0114     8.4876     0.6113 N.2     
  19 C19           -0.3500     9.7869     0.6549 C.2     
  20 C20           -1.6953     9.8426     0.4870 C.2     
  21 C21           -2.5437    11.0879     0.4652 C.3     
  22 F22           -2.6406    11.5633    -0.8470 F       
  23 F23           -3.8222    10.7898     0.9487 F       
  24 F24           -1.9560    12.0668     1.2736 F       
  25 C25            0.5582    10.9440     0.8507 C.ar    
  26 C26            1.6700    10.8274     1.6826 C.ar    
  27 C27            2.5116    11.9066     1.8608 C.ar    
  28 C28            2.2532    13.1024     1.2152 C.ar    
  29 C29            1.1511    13.2238     0.3882 C.ar    
  30 C30            0.3057    12.1494     0.1987 C.ar    
  31 O31            1.9327    -2.7399    -1.7835 O.3     
  32 C32            1.8829    -4.1675    -1.7454 C.3     
  33 H33            1.6973    -0.1367    -1.6610 H       
  34 H34           -0.1045    -3.8558    -0.5780 H       
  35 H35           -1.9575    -2.6547     0.5033 H       
  36 H36           -1.9933    -0.1964     0.5221 H       
  37 H37           -1.9499     1.6377     0.3736 H       
  38 H38           -3.2801     3.7442    -0.1364 H       
  39 H39           -3.2289     6.1950     0.0395 H       
  40 H40            1.0254     6.0581     0.5734 H       
  41 H41            0.9621     3.6070     0.4056 H       
  42 H42            1.8724     9.8943     2.1874 H       
  43 H43            3.3734    11.8174     2.5056 H       
  44 H44            2.9143    13.9445     1.3577 H       
  45 H45            0.9538    14.1598    -0.1131 H       
  46 H46           -0.5520    12.2438    -0.4507 H       
  47 H47            0.9763    -4.5128    -2.2423 H       
  48 H48            2.7551    -4.5753    -2.2563 H       
  49 H49            1.8792    -4.5034    -0.7084 H       
@<TRIPOS>BOND
   1    1    2 1
   2    1    8 2
   3    1    9 am
   4    2    3 ar
   5    2    7 ar
   6    3    4 ar
   7    3   33 1
   8    4    5 ar
   9    4   31 1
  10    5    6 ar
  11    5   34 1
  12    6    7 ar
  13    6   35 1
  14    7   36 1
  15    9   10 1
  16    9   37 1
  17   10   11 ar
  18   10   15 ar
  19   11   12 ar
  20   11   38 1
  21   12   13 ar
  22   12   39 1
  23   13   14 ar
  24   13   17 1
  25   14   15 ar
  26   14   40 1
  27   15   41 1
  28   16   17 1
  29   16   20 1
  30   17   18 2
  31   18   19 1
  32   19   20 2
  33   19   25 1
  34   20   21 1
  35   21   22 1
  36   21   23 1
  37   21   24 1
  38   25   26 ar
  39   25   30 ar
  40   26   27 ar
  41   26   42 1
  42   27   28 ar
  43   27   43 1
  44   28   29 ar
  45   28   44 1
  46   29   30 ar
  47   29   45 1
  48   30   46 1
  49   31   32 1
  50   32   47 1
  51   32   48 1
  52   32   49 1

#	End of record

