#	Name: ASD01918611
#	Creating user name:	WinNT
#	Creation time:	15. 06. 2019 20:11

#	Modifying user name:	WinNT
#	Modification time:	15. 06. 2019 20:11

#	Program:	/corina/corina34_cracker 3.40 0067  02.08.2006

@<TRIPOS>MOLECULE
ASD01918611
  39   41    0    0    0
SMALL
NO_CHARGES


@<TRIPOS>ATOM
   1 F1            -1.1471     1.8691    -2.3283 F       
   2 C2            -0.5982     2.2954    -1.1698 C.ar    
   3 C3            -1.2240     2.0213     0.0348 C.ar    
   4 C4            -0.6643     2.4559     1.2221 C.ar    
   5 C5             0.5206     3.1653     1.2102 C.ar    
   6 C6             1.1515     3.4425     0.0042 C.ar    
   7 C7             0.5919     3.0008    -1.1867 C.ar    
   8 N8             2.3528     4.1622    -0.0097 N.am    
   9 C9             3.5420     3.4998     0.0672 C.2     
  10 C10            4.6970     4.2090     0.0527 C.2     
  11 C11            4.6350     5.6119    -0.0416 C.2     
  12 O12            5.7723     6.3422    -0.0584 O.3     
  13 C13            5.6310     7.7609    -0.1559 C.3     
  14 C14            7.0154     8.4122    -0.1607 C.3     
  15 O15            7.7218     8.0209    -1.3396 O.3     
  16 C16            8.9773     8.5159    -1.4995 C.ar    
  17 C17            9.5204     9.3564    -0.5386 C.ar    
  18 C18           10.7970     9.8579    -0.7032 C.ar    
  19 C19           11.5332     9.5232    -1.8247 C.ar    
  20 C20           10.9941     8.6861    -2.7840 C.ar    
  21 C21            9.7202     8.1770    -2.6211 C.ar    
  22 N22            3.4572     6.2131    -0.1141 N.2     
  23 C23            2.3289     5.5044    -0.1044 C.2     
  24 O24            1.2569     6.0819    -0.1774 O.2     
  25 H25           -2.1510     1.4673     0.0469 H       
  26 H26           -1.1545     2.2407     2.1600 H       
  27 H27            0.9562     3.5048     2.1383 H       
  28 H28            1.0826     3.2110    -2.1256 H       
  29 H29            3.5635     2.4224     0.1392 H       
  30 H30            5.6504     3.7052     0.1128 H       
  31 H31            5.1083     8.0114    -1.0790 H       
  32 H32            5.0595     8.1284     0.6964 H       
  33 H33            6.9067     9.4967    -0.1454 H       
  34 H34            7.5715     8.0903     0.7198 H       
  35 H35            8.9454     9.6187     0.3372 H       
  36 H36           11.2202    10.5122     0.0446 H       
  37 H37           12.5310     9.9166    -1.9517 H       
  38 H38           11.5710     8.4265    -3.6593 H       
  39 H39            9.3012     7.5197    -3.3685 H       
@<TRIPOS>BOND
   1    1    2 1
   2    2    7 ar
   3    2    3 ar
   4    3    4 ar
   5    3   25 1
   6    4    5 ar
   7    4   26 1
   8    5    6 ar
   9    5   27 1
  10    6    7 ar
  11    6    8 1
  12    7   28 1
  13    8   23 am
  14    8    9 1
  15    9   10 2
  16    9   29 1
  17   10   11 1
  18   10   30 1
  19   11   12 1
  20   11   22 2
  21   12   13 1
  22   13   14 1
  23   13   31 1
  24   13   32 1
  25   14   15 1
  26   14   33 1
  27   14   34 1
  28   15   16 1
  29   16   21 ar
  30   16   17 ar
  31   17   18 ar
  32   17   35 1
  33   18   19 ar
  34   18   36 1
  35   19   20 ar
  36   19   37 1
  37   20   21 ar
  38   20   38 1
  39   21   39 1
  40   22   23 1
  41   23   24 2

#	End of record

