#	Name: ASD01882543
#	Creating user name:	WinNT
#	Creation time:	15. 06. 2019 19:44

#	Modifying user name:	WinNT
#	Modification time:	15. 06. 2019 19:44

#	Program:	/corina/corina34_cracker 3.40 0067  02.08.2006

@<TRIPOS>MOLECULE
ASD01882543
  53   57    0    0    0
SMALL
NO_CHARGES


@<TRIPOS>ATOM
   1 C1            -0.9584     0.4023     0.7598 C.2     
   2 C2            -0.5782    -0.9424     0.5780 C.2     
   3 C3             0.7364    -1.2414     0.3900 C.2     
   4 C4             1.6913    -0.2102     0.3798 C.2     
   5 C5             1.3120     1.0729     0.5557 C.2     
   6 N6            -0.0020     1.3875     0.7448 N.pl3   
   7 N7            -1.9392     2.2697     1.0636 N.2     
   8 N8            -2.1222     1.0007     0.9547 N.2     
   9 C9            -0.6687     2.5568     0.9427 C.2     
  10 C10            1.1663    -2.6724     0.1940 C.3     
  11 N11            1.2570    -2.9640    -1.2429 N.3     
  12 C12            1.8965    -4.2651    -1.4764 C.3     
  13 C13            2.1056    -4.4700    -2.9785 C.3     
  14 C14            0.7511    -4.4109    -3.6902 C.3     
  15 C15            0.0846    -3.0652    -3.3913 C.3     
  16 C16           -0.0659    -2.9011    -1.8772 C.3     
  17 O17            0.9459    -4.5448    -5.0995 O.3     
  18 C18           -0.0980    -5.0302    -5.8237 C.ar    
  19 C19            0.0602    -5.2990    -7.1775 C.ar    
  20 C20           -1.0026    -5.7929    -7.9117 C.ar    
  21 C21           -2.2229    -6.0192    -7.2974 C.ar    
  22 C22           -2.3809    -5.7512    -5.9487 C.ar    
  23 C23           -1.3190    -5.2627    -5.2106 C.ar    
  24 F24           -3.2606    -6.5018    -8.0154 F       
  25 F25            1.2508    -5.0775    -7.7763 F       
  26 C26           -0.0556     3.9318     1.0090 C.3     
  27 C27           -0.0179     4.5416    -0.3937 C.3     
  28 C28            0.4640     5.9880    -0.5225 C.3     
  29 C29            1.3558     4.8394    -0.9979 C.3     
  30 Cl30          -1.7720    -2.2027     0.5943 Cl      
  31 H31            2.7346    -0.4460     0.2307 H       
  32 H32            2.0545     1.8570     0.5463 H       
  33 H33            2.1405    -2.8259     0.6582 H       
  34 H34            0.4356    -3.3375     0.6543 H       
  35 H35            2.8606    -4.2924    -0.9685 H       
  36 H36            1.2585    -5.0585    -1.0870 H       
  37 H37            2.7548    -3.6848    -3.3660 H       
  38 H38            2.5660    -5.4425    -3.1526 H       
  39 H39            0.1153    -5.2201    -3.3309 H       
  40 H40            0.7020    -2.2579    -3.7853 H       
  41 H41           -0.8989    -3.0341    -3.8602 H       
  42 H42           -0.6947    -3.7008    -1.4859 H       
  43 H43           -0.5271    -1.9376    -1.6604 H       
  44 H44           -0.8810    -6.0019    -8.9643 H       
  45 H45           -3.3335    -5.9280    -5.4715 H       
  46 H46           -1.4421    -5.0585    -4.1573 H       
  47 H47           -0.6535     4.5650     1.6645 H       
  48 H48            0.9589     3.8588     1.4008 H       
  49 H49           -0.8052     4.2112    -1.0713 H       
  50 H50           -0.0060     6.6091    -1.2851 H       
  51 H51            0.7541     6.5052     0.3921 H       
  52 H52            2.2328     4.6008    -0.3961 H       
  53 H53            1.4726     4.7047    -2.0732 H       
@<TRIPOS>BOND
   1    1    2 1
   2    1    6 1
   3    1    8 2
   4    2    3 2
   5    2   30 1
   6    3    4 1
   7    3   10 1
   8    4    5 2
   9    4   31 1
  10    5    6 1
  11    5   32 1
  12    6    9 1
  13    7    8 1
  14    7    9 2
  15    9   26 1
  16   10   11 1
  17   10   33 1
  18   10   34 1
  19   11   12 1
  20   11   16 1
  21   12   13 1
  22   12   35 1
  23   12   36 1
  24   13   14 1
  25   13   37 1
  26   13   38 1
  27   14   15 1
  28   14   17 1
  29   14   39 1
  30   15   16 1
  31   15   40 1
  32   15   41 1
  33   16   42 1
  34   16   43 1
  35   17   18 1
  36   18   19 ar
  37   18   23 ar
  38   19   20 ar
  39   19   25 1
  40   20   21 ar
  41   20   44 1
  42   21   22 ar
  43   21   24 1
  44   22   23 ar
  45   22   45 1
  46   23   46 1
  47   26   27 1
  48   26   47 1
  49   26   48 1
  50   27   28 1
  51   27   29 1
  52   27   49 1
  53   28   29 1
  54   28   50 1
  55   28   51 1
  56   29   52 1
  57   29   53 1

#	End of record

