#	Name: ASD03912035
#	Creating user name:	WinNT
#	Creation time:	15. 06. 2019 20:47

#	Modifying user name:	WinNT
#	Modification time:	15. 06. 2019 20:47

#	Program:	/corina/corina34_cracker 3.40 0067  02.08.2006

@<TRIPOS>MOLECULE
ASD03912035
  69   72    0    0    0
SMALL
NO_CHARGES


@<TRIPOS>ATOM
   1 C1             0.8292     1.4595     0.8422 C.ar    
   2 C2             1.0589     0.3169     1.5863 C.ar    
   3 C3             0.0222    -0.2800     2.2800 C.ar    
   4 C4            -1.2466     0.2635     2.2311 C.ar    
   5 C5            -1.4805     1.4109     1.4847 C.ar    
   6 C6            -0.4359     2.0115     0.7942 C.ar    
   7 C7             1.9619     2.1068     0.0878 C.3     
   8 C8             0.2769    -1.5252     3.0897 C.3     
   9 N9            -2.7647     1.9641     1.4330 N.am    
  10 C10           -2.9199     3.2988     1.3282 C.2     
  11 C11           -4.2919     3.8831     1.1108 C.3     
  12 O12           -1.9553     4.0296     1.4087 O.2     
  13 C13           -4.1768     5.3711     0.9021 C.ar    
  14 C14           -4.1039     5.8847    -0.3796 C.ar    
  15 C15           -3.9984     7.2483    -0.5736 C.ar    
  16 C16           -3.9656     8.1027     0.5189 C.ar    
  17 C17           -4.0389     7.5850     1.8039 C.ar    
  18 C18           -4.1501     6.2209     1.9924 C.ar    
  19 O19           -3.8614     9.4446     0.3307 O.3     
  20 C20           -3.9541    10.2717     1.4923 C.3     
  21 C21           -5.2583    10.0180     2.2035 C.2     
  22 C22           -2.7740     9.9869     2.4378 C.3     
  23 C23           -1.9935    11.3100     2.5794 C.3     
  24 C24           -3.0363    12.4042     2.2413 C.3     
  25 C25           -3.8509    11.7581     1.0923 C.3     
  26 N26           -6.3775     9.7760     1.4928 N.am    
  27 O27           -5.3007    10.0315     3.4155 O.2     
  28 C28           -7.6197     9.4175     2.1818 C.3     
  29 C29           -8.3701    10.6715     2.5495 C.2     
  30 O30           -7.9142    11.7537     2.2652 O.2     
  31 O31           -9.5451    10.5863     3.1929 O.3     
  32 C32           -8.4720     8.5703     1.2725 C.ar    
  33 C33           -9.0642     7.4184     1.7553 C.ar    
  34 C34           -9.8460     6.6413     0.9212 C.ar    
  35 C35          -10.0360     7.0164    -0.3956 C.ar    
  36 C36           -9.4446     8.1689    -0.8782 C.ar    
  37 C37           -8.6663     8.9483    -0.0429 C.ar    
  38 H38            2.0499    -0.1105     1.6256 H       
  39 H39           -2.0560    -0.2036     2.7725 H       
  40 H40           -0.6145     2.9041     0.2131 H       
  41 H41            2.0752     1.6235    -0.8826 H       
  42 H42            1.7445     3.1651    -0.0566 H       
  43 H43            2.8854     2.0000     0.6569 H       
  44 H44            0.5548    -1.2470     4.1063 H       
  45 H45           -0.6268    -2.1341     3.1139 H       
  46 H46            1.0870    -2.0951     2.6347 H       
  47 H47           -3.5433     1.3869     1.4727 H       
  48 H48           -4.7459     3.4268     0.2311 H       
  49 H49           -4.9134     3.6857     1.9842 H       
  50 H50           -4.1291     5.2191    -1.2298 H       
  51 H51           -3.9411     7.6490    -1.5749 H       
  52 H52           -4.0136     8.2480     2.6560 H       
  53 H53           -4.2072     5.8173     2.9925 H       
  54 H54           -3.1446     9.6659     3.4113 H       
  55 H55           -2.1306     9.2177     2.0106 H       
  56 H56           -1.6304    11.4313     3.5999 H       
  57 H57           -1.1646    11.3415     1.8723 H       
  58 H58           -3.6757    12.6072     3.1005 H       
  59 H59           -2.5439    13.3152     1.9012 H       
  60 H60           -3.3222    11.8617     0.1447 H       
  61 H61           -4.8421    12.2068     1.0281 H       
  62 H62           -6.3606     9.8393     0.5250 H       
  63 H63           -7.3845     8.8564     3.0863 H       
  64 H64           -9.9894    11.4179     3.4076 H       
  65 H65           -8.9158     7.1253     2.7842 H       
  66 H66          -10.3081     5.7409     1.2983 H       
  67 H67          -10.6463     6.4089    -1.0475 H       
  68 H68           -9.5928     8.4618    -1.9071 H       
  69 H69           -8.2042     9.8487    -0.4200 H       
@<TRIPOS>BOND
   1    1    2 ar
   2    1    7 1
   3    1    6 ar
   4    2    3 ar
   5    2   38 1
   6    3    4 ar
   7    3    8 1
   8    4    5 ar
   9    4   39 1
  10    5    6 ar
  11    5    9 1
  12    6   40 1
  13    7   41 1
  14    7   42 1
  15    7   43 1
  16    8   44 1
  17    8   45 1
  18    8   46 1
  19    9   10 am
  20    9   47 1
  21   10   11 1
  22   10   12 2
  23   11   13 1
  24   11   48 1
  25   11   49 1
  26   13   14 ar
  27   13   18 ar
  28   14   15 ar
  29   14   50 1
  30   15   16 ar
  31   15   51 1
  32   16   17 ar
  33   16   19 1
  34   17   18 ar
  35   17   52 1
  36   18   53 1
  37   19   20 1
  38   20   21 1
  39   20   22 1
  40   20   25 1
  41   21   26 am
  42   21   27 2
  43   22   23 1
  44   22   54 1
  45   22   55 1
  46   23   24 1
  47   23   56 1
  48   23   57 1
  49   24   25 1
  50   24   58 1
  51   24   59 1
  52   25   60 1
  53   25   61 1
  54   26   28 1
  55   26   62 1
  56   28   29 1
  57   28   32 1
  58   28   63 1
  59   29   30 2
  60   29   31 1
  61   31   64 1
  62   32   33 ar
  63   32   37 ar
  64   33   34 ar
  65   33   65 1
  66   34   35 ar
  67   34   66 1
  68   35   36 ar
  69   35   67 1
  70   36   37 ar
  71   36   68 1
  72   37   69 1

#	End of record

