#	Name: ASD00060008
#	Creating user name:	WinNT
#	Creation time:	15. 06. 2019 18:29

#	Modifying user name:	WinNT
#	Modification time:	15. 06. 2019 18:29

#	Program:	/corina/corina34_cracker 3.40 0067  02.08.2006

@<TRIPOS>MOLECULE
ASD00060008
  35   36    0    0    0
SMALL
NO_CHARGES


@<TRIPOS>ATOM
   1 C1            -0.0169     1.3943     0.0097 C.ar    
   2 C2             0.0021    -0.0041     0.0020 C.ar    
   3 C3            -1.1847    -0.7060     0.0101 C.ar    
   4 C4            -2.3925    -0.0303     0.0252 C.ar    
   5 C5            -2.4196     1.3534     0.0329 C.ar    
   6 C6            -1.2414     2.0697     0.0309 C.ar    
   7 C7             1.2453     2.1512     0.0017 C.2     
   8 C8             1.6191     3.0054     1.1856 C.3     
   9 C9             0.9636     4.3811     1.0492 C.3     
  10 C10            1.3375     5.2353     2.2331 C.ar    
  11 C11            2.0676     2.0804    -1.0655 C.2     
  12 C12            1.7048     1.2515    -2.2143 C.2     
  13 O13            0.6618     0.6260    -2.2077 O.2     
  14 O14            2.5271     1.1807    -3.2815 O.3     
  15 C15            2.5248     5.9474     2.2257 C.ar    
  16 C16            2.8674     6.7319     3.3140 C.ar    
  17 C17            2.0234     6.8033     4.4069 C.ar    
  18 C18            0.8372     6.0911     4.4127 C.ar    
  19 C19            0.4923     5.3124     3.3242 C.ar    
  20 Br20           2.4907     7.8739     5.8939 Br      
  21 F21            3.3487     5.8765     1.1574 F       
  22 H22            0.9438    -0.5327    -0.0105 H       
  23 H23           -1.1717    -1.7859     0.0041 H       
  24 H24           -3.3187    -0.5858     0.0308 H       
  25 H25           -3.3661     1.8735     0.0444 H       
  26 H26           -1.2641     3.1494     0.0368 H       
  27 H27            1.2733     2.5275     2.1022 H       
  28 H28            2.7023     3.1211     1.2226 H       
  29 H29            1.3094     4.8591     0.1327 H       
  30 H30           -0.1196     4.2654     1.0123 H       
  31 H31            2.9938     2.6358    -1.0714 H       
  32 H32            2.2029     0.6086    -3.9905 H       
  33 H33            3.7935     7.2875     3.3093 H       
  34 H34            0.1784     6.1471     5.2666 H       
  35 H35           -0.4338     4.7569     3.3298 H       
@<TRIPOS>BOND
   1    1    2 ar
   2    1    7 1
   3    1    6 ar
   4    2    3 ar
   5    2   22 1
   6    3    4 ar
   7    3   23 1
   8    4    5 ar
   9    4   24 1
  10    5    6 ar
  11    5   25 1
  12    6   26 1
  13    7    8 1
  14    7   11 2
  15    8    9 1
  16    8   27 1
  17    8   28 1
  18    9   10 1
  19    9   29 1
  20    9   30 1
  21   10   15 ar
  22   10   19 ar
  23   11   12 1
  24   11   31 1
  25   12   13 2
  26   12   14 1
  27   14   32 1
  28   15   16 ar
  29   15   21 1
  30   16   17 ar
  31   16   33 1
  32   17   18 ar
  33   17   20 1
  34   18   19 ar
  35   18   34 1
  36   19   35 1

#	End of record

