#	Name: ASD08178388
#	Creating user name:	WinNT
#	Creation time:	15. 06. 2019 21:18

#	Modifying user name:	WinNT
#	Modification time:	15. 06. 2019 21:18

#	Program:	/corina/corina34_cracker 3.40 0067  02.08.2006

@<TRIPOS>MOLECULE
ASD08178388
  76   80    0    0    0
SMALL
NO_CHARGES


@<TRIPOS>ATOM
   1 N1            -1.2711     1.9443    -4.1846 N.am    
   2 C2            -1.1039     0.5827    -3.9344 C.ar    
   3 C3             0.1540    -0.0031    -4.0619 C.ar    
   4 N4            -2.1391    -0.1586    -3.5690 N.ar    
   5 N5            -2.0273    -1.4145    -3.3290 N.ar    
   6 C6            -0.8768    -2.0508    -3.4298 C.ar    
   7 C7             0.2675    -1.3602    -3.8015 C.ar    
   8 C8            -0.8039    -3.5270    -3.1354 C.3     
   9 C9            -1.3589    -3.7958    -1.7352 C.3     
  10 C10           -1.2849    -5.2945    -1.4363 C.3     
  11 C11           -1.8399    -5.5633    -0.0361 C.3     
  12 C12           -1.7669    -7.0395     0.2583 C.2     
  13 N13           -0.7737    -7.6599     0.8116 N.2     
  14 N14           -0.9053    -8.9051     0.9738 N.2     
  15 C15           -2.0145    -9.4511     0.5756 C.2     
  16 S16           -3.0219    -8.2315    -0.0817 S.3     
  17 N17           -2.3337   -10.8013     0.6722 N.am    
  18 C18           -1.4540   -11.6644     1.2180 C.2     
  19 C19           -1.7999   -13.1274     1.3226 C.3     
  20 O20           -0.3841   -11.2636     1.6248 O.2     
  21 C21           -0.6561   -13.8693     1.9648 C.ar    
  22 C22           -2.5053     2.4855    -4.1706 C.2     
  23 C23           -2.6770     3.9745    -4.3268 C.3     
  24 O24           -3.4778     1.7742    -4.0323 O.2     
  25 C25           -4.1432     4.3191    -4.2768 C.ar    
  26 C26           -4.7440     4.6100    -3.0663 C.ar    
  27 C27           -4.8862     4.3498    -5.4421 C.ar    
  28 C28           -6.2311     4.6659    -5.3963 C.ar    
  29 C29           -6.8332     4.9509    -4.1850 C.ar    
  30 C30           -6.0889     4.9261    -3.0204 C.ar    
  31 C31           -0.0232   -14.8845     1.2790 C.ar    
  32 C32            1.0369   -15.5712     1.8759 C.ar    
  33 C33            1.4481   -15.2236     3.1646 C.ar    
  34 C34            0.8059   -14.2059     3.8390 C.ar    
  35 C35           -0.2397   -13.5263     3.2395 C.ar    
  36 C36            1.7196   -16.6603     1.1475 C.2     
  37 C37            3.1202   -17.0012     1.4715 C.ar    
  38 C38            3.6447   -18.2411     1.0992 C.ar    
  39 C39           -3.0590   -13.2940     2.1758 C.3     
  40 O40            1.1289   -17.2759     0.2817 O.2     
  41 C41            4.9531   -18.5525     1.4044 C.ar    
  42 C42            5.7458   -17.6401     2.0784 C.ar    
  43 C43            5.2327   -16.4098     2.4504 C.ar    
  44 C44            3.9277   -16.0829     2.1465 C.ar    
  45 H45           -0.4987     2.5027    -4.3648 H       
  46 H46            1.0135     0.5816    -4.3549 H       
  47 H47            1.2180    -1.8656    -3.8892 H       
  48 H48           -1.3936    -4.0738    -3.8711 H       
  49 H49            0.2340    -3.8563    -3.1842 H       
  50 H50           -0.7692    -3.2490    -0.9994 H       
  51 H51           -2.3968    -3.4664    -1.6863 H       
  52 H52           -1.8746    -5.8413    -2.1720 H       
  53 H53           -0.2470    -5.6239    -1.4851 H       
  54 H54           -1.2502    -5.0165     0.6997 H       
  55 H55           -2.8778    -5.2339     0.0128 H       
  56 H56           -3.1894   -11.1219     0.3469 H       
  57 H57           -1.9804   -13.5303     0.3260 H       
  58 H58           -2.1555     4.4872    -3.5185 H       
  59 H59           -2.2622     4.2896    -5.2843 H       
  60 H60           -4.1626     4.5900    -2.1563 H       
  61 H61           -4.4157     4.1272    -6.3885 H       
  62 H62           -6.8114     4.6906    -6.3068 H       
  63 H63           -7.8839     5.1982    -4.1492 H       
  64 H64           -6.5593     5.1487    -2.0740 H       
  65 H65           -0.3466   -15.1484     0.2829 H       
  66 H66            2.2668   -15.7505     3.6321 H       
  67 H67            1.1227   -13.9363     4.8357 H       
  68 H68           -0.7389   -12.7304     3.7721 H       
  69 H69            3.0269   -18.9544     0.5738 H       
  70 H70           -3.3091   -14.3522     2.2515 H       
  71 H71           -2.8785   -12.8911     3.1724 H       
  72 H72           -3.8863   -12.7574     1.7113 H       
  73 H73            5.3600   -19.5108     1.1171 H       
  74 H74            6.7695   -17.8894     2.3156 H       
  75 H75            5.8569   -15.7025     2.9762 H       
  76 H76            3.5285   -15.1224     2.4374 H       
@<TRIPOS>BOND
   1    1    2 1
   2    1   22 am
   3    1   45 1
   4    2    3 ar
   5    2    4 ar
   6    3    7 ar
   7    3   46 1
   8    4    5 ar
   9    5    6 ar
  10    6    7 ar
  11    6    8 1
  12    7   47 1
  13    8    9 1
  14    8   48 1
  15    8   49 1
  16    9   10 1
  17    9   50 1
  18    9   51 1
  19   10   11 1
  20   10   52 1
  21   10   53 1
  22   11   12 1
  23   11   54 1
  24   11   55 1
  25   12   13 2
  26   12   16 1
  27   13   14 1
  28   14   15 2
  29   15   16 1
  30   15   17 1
  31   17   18 am
  32   17   56 1
  33   18   19 1
  34   18   20 2
  35   19   21 1
  36   19   39 1
  37   19   57 1
  38   21   31 ar
  39   21   35 ar
  40   22   23 1
  41   22   24 2
  42   23   25 1
  43   23   58 1
  44   23   59 1
  45   25   26 ar
  46   25   27 ar
  47   26   30 ar
  48   26   60 1
  49   27   28 ar
  50   27   61 1
  51   28   29 ar
  52   28   62 1
  53   29   30 ar
  54   29   63 1
  55   30   64 1
  56   31   32 ar
  57   31   65 1
  58   32   33 ar
  59   32   36 1
  60   33   34 ar
  61   33   66 1
  62   34   35 ar
  63   34   67 1
  64   35   68 1
  65   36   37 1
  66   36   40 2
  67   37   38 ar
  68   37   44 ar
  69   38   41 ar
  70   38   69 1
  71   39   70 1
  72   39   71 1
  73   39   72 1
  74   41   42 ar
  75   41   73 1
  76   42   43 ar
  77   42   74 1
  78   43   44 ar
  79   43   75 1
  80   44   76 1

#	End of record

