#	Name: ASD00170751
#	Creating user name:	WinNT
#	Creation time:	15. 06. 2019 18:32

#	Modifying user name:	WinNT
#	Modification time:	15. 06. 2019 18:32

#	Program:	/corina/corina34_cracker 3.40 0067  02.08.2006

@<TRIPOS>MOLECULE
ASD00170751
  39   41    0    0    0
SMALL
NO_CHARGES


@<TRIPOS>ATOM
   1 C1            -0.0153     1.2115    -0.0012 C.2     
   2 O2             0.6386     1.0223    -1.0110 O.2     
   3 C3             0.4836     0.7277     1.3044 C.ar    
   4 C4             1.6426    -0.0478     1.3679 C.ar    
   5 C5             2.1032    -0.4956     2.5881 C.ar    
   6 C6             1.4183    -0.1775     3.7492 C.ar    
   7 C7             0.2677     0.5916     3.6924 C.ar    
   8 C8            -0.1996     1.0496     2.4785 C.ar    
   9 Cl9            2.0039    -0.7453     5.2816 Cl      
  10 C10           -1.4055     3.2882    -0.0038 C.2     
  11 C11           -1.2900     1.9218    -0.0786 C.2     
  12 C12           -2.5739     1.2582    -0.2436 C.2     
  13 C13           -3.5986     2.1158    -0.2882 C.2     
  14 S14           -3.0350     3.7694    -0.1301 S.3     
  15 C15           -2.7294    -0.2119    -0.3515 C.ar    
  16 C16           -3.4116    -0.9181     0.6388 C.ar    
  17 C17           -3.5532    -2.2864     0.5330 C.ar    
  18 C18           -3.0195    -2.9580    -0.5526 C.ar    
  19 C19           -2.3414    -2.2630    -1.5376 C.ar    
  20 C20           -2.1993    -0.8932    -1.4461 C.ar    
  21 C21           -4.2901    -3.0511     1.6022 C.3     
  22 F22           -5.6484    -3.1198     1.2742 F       
  23 F23           -3.7666    -4.3451     1.6948 F       
  24 F24           -4.1394    -2.3981     2.8303 F       
  25 C25           -5.0423     1.7160    -0.4525 C.3     
  26 N26           -0.3444     4.1551     0.1579 N.pl3   
  27 H27            2.1773    -0.2968     0.4632 H       
  28 H28            2.9996    -1.0959     2.6384 H       
  29 H29           -0.2622     0.8365     4.6010 H       
  30 H30           -1.0945     1.6526     2.4358 H       
  31 H31           -3.8280    -0.3950     1.4869 H       
  32 H32           -3.1325    -4.0292    -0.6309 H       
  33 H33           -1.9267    -2.7926    -2.3826 H       
  34 H34           -1.6741    -0.3509    -2.2184 H       
  35 H35           -5.4887     1.5551     0.5288 H       
  36 H36           -5.5818     2.5081    -0.9717 H       
  37 H37           -5.1005     0.7955    -1.0335 H       
  38 H38            0.5491     3.8063     0.3028 H       
  39 H39           -0.4918     5.1133     0.1267 H       
@<TRIPOS>BOND
   1    1    2 2
   2    1    3 1
   3    1   11 1
   4    3    4 ar
   5    3    8 ar
   6    4    5 ar
   7    4   27 1
   8    5    6 ar
   9    5   28 1
  10    6    7 ar
  11    6    9 1
  12    7    8 ar
  13    7   29 1
  14    8   30 1
  15   10   11 2
  16   10   14 1
  17   10   26 1
  18   11   12 1
  19   12   13 2
  20   12   15 1
  21   13   14 1
  22   13   25 1
  23   15   16 ar
  24   15   20 ar
  25   16   17 ar
  26   16   31 1
  27   17   18 ar
  28   17   21 1
  29   18   19 ar
  30   18   32 1
  31   19   20 ar
  32   19   33 1
  33   20   34 1
  34   21   22 1
  35   21   23 1
  36   21   24 1
  37   25   35 1
  38   25   36 1
  39   25   37 1
  40   26   38 1
  41   26   39 1

#	End of record

