#	Name: ASD03090918
#	Creating user name:	WinNT
#	Creation time:	15. 06. 2019 20:29

#	Modifying user name:	WinNT
#	Modification time:	15. 06. 2019 20:29

#	Program:	/corina/corina34_cracker 3.40 0067  02.08.2006

@<TRIPOS>MOLECULE
ASD03090918
  47   50    0    0    0
SMALL
NO_CHARGES


@<TRIPOS>ATOM
   1 N1            -0.0188     1.4673    -0.0839 N.am    
   2 C2             0.0008    -0.0024    -0.1166 C.3     
   3 C3             1.4805    -0.4407    -0.1296 C.3     
   4 C4             2.2127     0.7901     0.4675 C.3     
   5 C5             1.3708     1.9592    -0.1018 C.3     
   6 C6            -1.1243     2.2375    -0.0491 C.2     
   7 O7            -2.2278     1.7198    -0.0429 O.2     
   8 N8            -1.0107     3.5684    -0.0216 N.2     
   9 S9            -3.7398     3.7959     0.0278 S.3     
  10 C10           -2.1024     4.3290     0.0127 C.2     
  11 N11           -2.1550     5.6846     0.0435 N.pl3   
  12 C12           -3.3921     6.2525     0.0763 C.2     
  13 C13           -4.4303     5.4271     0.0752 C.2     
  14 C14           -5.8904     5.7985     0.1077 C.3     
  15 O15           -6.5131     5.3905    -1.1121 O.3     
  16 C16           -7.9068     5.6976    -1.1843 C.3     
  17 C17           -8.4658     5.2183    -2.5254 C.3     
  18 O18            2.2838     8.9664     0.0179 O.3     
  19 C19            1.6021    10.1983     0.3191 C.3     
  20 O20            0.2568     9.9656    -0.1383 O.3     
  21 C21            0.0719     8.6157    -0.0557 C.ar    
  22 C22            1.3184     8.0005     0.0404 C.ar    
  23 C23           -1.0791     7.8463    -0.0548 C.ar    
  24 C24           -0.9896     6.4641     0.0421 C.ar    
  25 C25            0.2535     5.8542     0.1379 C.ar    
  26 C26            1.4031     6.6213     0.1375 C.ar    
  27 F27            1.6174    10.4445     1.6962 F       
  28 F28            2.1811    11.2638    -0.3785 F       
  29 H29           -0.4957    -0.3996     0.7687 H       
  30 H30           -0.4996    -0.3599    -1.0166 H       
  31 H31            1.6280    -1.3193     0.4984 H       
  32 H32            1.8169    -0.6327    -1.1485 H       
  33 H33            2.1757     0.7761     1.5568 H       
  34 H34            3.2424     0.8416     0.1138 H       
  35 H35            1.6794     2.1873    -1.1220 H       
  36 H36            1.4693     2.8410     0.5313 H       
  37 H37           -3.5217     7.3244     0.1021 H       
  38 H38           -6.3738     5.2989     0.9473 H       
  39 H39           -5.9883     6.8781     0.2222 H       
  40 H40           -8.4320     5.1958    -0.3716 H       
  41 H41           -8.0465     6.7751    -1.0966 H       
  42 H42           -7.9406     5.7201    -3.3381 H       
  43 H43           -8.3262     4.1409    -2.6131 H       
  44 H44           -9.5289     5.4526    -2.5805 H       
  45 H45           -2.0463     8.3212    -0.1288 H       
  46 H46            0.3225     4.7791     0.2132 H       
  47 H47            2.3693     6.1445     0.2116 H       
@<TRIPOS>BOND
   1    1    2 1
   2    1    5 1
   3    1    6 am
   4    2    3 1
   5    2   29 1
   6    2   30 1
   7    3    4 1
   8    3   31 1
   9    3   32 1
  10    4    5 1
  11    4   33 1
  12    4   34 1
  13    5   35 1
  14    5   36 1
  15    6    7 2
  16    6    8 1
  17    8   10 2
  18    9   10 1
  19    9   13 1
  20   10   11 1
  21   11   12 1
  22   11   24 1
  23   12   13 2
  24   12   37 1
  25   13   14 1
  26   14   15 1
  27   14   38 1
  28   14   39 1
  29   15   16 1
  30   16   17 1
  31   16   40 1
  32   16   41 1
  33   17   42 1
  34   17   43 1
  35   17   44 1
  36   18   19 1
  37   18   22 1
  38   19   20 1
  39   19   27 1
  40   19   28 1
  41   20   21 1
  42   21   22 ar
  43   21   23 ar
  44   22   26 ar
  45   23   24 ar
  46   23   45 1
  47   24   25 ar
  48   25   26 ar
  49   25   46 1
  50   26   47 1

#	End of record

