#	Name: ASD01915763
#	Creating user name:	WinNT
#	Creation time:	15. 06. 2019 20:06

#	Modifying user name:	WinNT
#	Modification time:	15. 06. 2019 20:06

#	Program:	/corina/corina34_cracker 3.40 0067  02.08.2006

@<TRIPOS>MOLECULE
ASD01915763
  44   47    0    0    0
SMALL
NO_CHARGES


@<TRIPOS>ATOM
   1 C1            -0.0042     1.4682     0.2340 C.2     
   2 N2             0.0659     0.1187    -0.0300 N.pl3   
   3 C3            -1.1433    -0.6642    -0.3119 C.3     
   4 C4            -2.3281    -0.0485     0.4305 C.3     
   5 N5            -2.4044     1.3988     0.2638 N.am    
   6 C6            -1.2934     2.1741     0.2854 C.2     
   7 C7             1.2764     1.9055     0.4243 C.2     
   8 C8             2.0758     0.7645     0.2726 C.2     
   9 N9             1.2862    -0.2509     0.0107 N.2     
  10 C10            3.5773     0.7124     0.3896 C.3     
  11 O11            4.0779     2.0183     0.6829 O.3     
  12 C12            5.4237     2.1465     0.8213 C.ar    
  13 O13           -1.3587     3.3874     0.3440 O.2     
  14 C14            5.9779     3.3859     1.1064 C.ar    
  15 C15            6.2452     1.0371     0.6834 C.ar    
  16 C16            7.6129     1.1700     0.8245 C.ar    
  17 C17            8.1633     2.4074     1.1030 C.ar    
  18 C18            7.3463     3.5136     1.2466 C.ar    
  19 C19           -3.6541     2.0003     0.0771 C.ar    
  20 C20           -3.9668     2.5905    -1.1404 C.ar    
  21 C21           -4.5855     2.0028     1.1072 C.ar    
  22 C22           -5.8183     2.5965     0.9207 C.ar    
  23 C23           -6.1261     3.1891    -0.2924 C.ar    
  24 C24           -5.2009     3.1832    -1.3227 C.ar    
  25 F25           -7.3328     3.7694    -0.4728 F       
  26 C26           -1.4209    -0.6512    -1.8165 C.3     
  27 F27           -0.3870    -1.3134    -2.4872 F       
  28 H28           -0.9981    -1.6913     0.0229 H       
  29 H29           -3.2491    -0.4952     0.0560 H       
  30 H30           -2.2351    -0.2762     1.4924 H       
  31 H31            1.6018     2.9118     0.6434 H       
  32 H32            3.8558     0.0281     1.1910 H       
  33 H33            4.0031     0.3628    -0.5510 H       
  34 H34            5.3402     4.2503     1.2183 H       
  35 H35            5.8157     0.0702     0.4662 H       
  36 H36            8.2528     0.3066     0.7176 H       
  37 H37            9.2329     2.5093     1.2130 H       
  38 H38            7.7787     4.4792     1.4637 H       
  39 H39           -3.2454     2.5864    -1.9441 H       
  40 H40           -4.3459     1.5404     2.0534 H       
  41 H41           -6.5431     2.5984     1.7215 H       
  42 H42           -5.4429     3.6459    -2.2680 H       
  43 H43           -2.3658    -1.1568    -2.0160 H       
  44 H44           -1.4794     0.3795    -2.1663 H       
@<TRIPOS>BOND
   1    1    2 1
   2    1    7 2
   3    1    6 1
   4    2    3 1
   5    2    9 1
   6    3    4 1
   7    3   26 1
   8    3   28 1
   9    4    5 1
  10    4   29 1
  11    4   30 1
  12    5    6 am
  13    5   19 1
  14    6   13 2
  15    7    8 1
  16    7   31 1
  17    8    9 2
  18    8   10 1
  19   10   11 1
  20   10   32 1
  21   10   33 1
  22   11   12 1
  23   12   14 ar
  24   12   15 ar
  25   14   18 ar
  26   14   34 1
  27   15   16 ar
  28   15   35 1
  29   16   17 ar
  30   16   36 1
  31   17   18 ar
  32   17   37 1
  33   18   38 1
  34   19   21 ar
  35   19   20 ar
  36   20   24 ar
  37   20   39 1
  38   21   22 ar
  39   21   40 1
  40   22   23 ar
  41   22   41 1
  42   23   24 ar
  43   23   25 1
  44   24   42 1
  45   26   27 1
  46   26   43 1
  47   26   44 1

#	End of record

