#	Name: ASD01410487
#	Creating user name:	WinNT
#	Creation time:	15. 06. 2019 19:17

#	Modifying user name:	WinNT
#	Modification time:	15. 06. 2019 19:17

#	Program:	/corina/corina34_cracker 3.40 0067  02.08.2006

@<TRIPOS>MOLECULE
ASD01410487
  68   71    0    0    0
SMALL
NO_CHARGES


@<TRIPOS>ATOM
   1 C1            -0.1736     1.3909     2.5200 C.ar    
   2 C2             0.5896     1.2136     3.6656 C.ar    
   3 C3             1.8675     0.7019     3.5537 C.ar    
   4 N4             2.3671     0.3823     2.3753 N.ar    
   5 C5             1.6707     0.5368     1.2610 C.ar    
   6 C6             0.3788     1.0456     1.2987 C.ar    
   7 O7             2.2239     0.1955     0.0702 O.3     
   8 C8             3.5204    -0.2140     0.0626 C.ar    
   9 C9             3.8575    -1.4558     0.5879 C.ar    
  10 C10            5.1704    -1.8812     0.5857 C.ar    
  11 C11            6.1651    -1.0696     0.0576 C.ar    
  12 C12            5.8311     0.1853    -0.4748 C.ar    
  13 C13            4.4984     0.6041    -0.4728 C.ar    
  14 N14            7.4904    -1.4991     0.0564 N.am    
  15 C15            7.9147    -2.3734    -0.8774 C.2     
  16 C16            8.4229    -1.0003     1.0703 C.3     
  17 O17            9.0639    -2.7698    -0.8615 O.2     
  18 C18            6.9840    -2.8497    -1.9194 C.ar    
  19 C19            5.8547    -2.0963    -2.2494 C.ar    
  20 C20            4.9898    -2.5460    -3.2234 C.ar    
  21 C21            5.2365    -3.7434    -3.8762 C.ar    
  22 C22            6.3520    -4.4962    -3.5563 C.ar    
  23 C23            7.2316    -4.0547    -2.5852 C.ar    
  24 C24            7.7105     0.0198     1.9606 C.3     
  25 C25            0.0301     1.5760     5.0171 C.3     
  26 Br26           4.0421    -4.3512    -5.2102 Br      
  27 N27           -0.6523     0.4134     5.5908 N.pl3   
  28 N28           -1.8959     0.1365     5.4159 N.2     
  29 O29            9.7979    -2.9860     1.1545 O.3     
  30 C30            8.9172    -2.1677     1.9269 C.3     
  31 C31           10.3189    -4.1110     1.8650 C.3     
  32 O32            7.3641     1.1690     1.1852 O.3     
  33 C33            6.6903     2.1885     1.9260 C.3     
  34 F34            8.3211    -4.7900    -2.2728 F       
  35 N35           -0.0881    -0.4720     6.3334 N.2     
  36 C36           -0.9843    -1.3707     6.6729 C.2     
  37 C37           -2.1773    -0.9691     6.0675 C.2     
  38 C38            6.8801     1.0544    -1.0373 C.2     
  39 O39            8.0188     0.6432    -1.1412 O.2     
  40 O40            6.5764     2.3052    -1.4364 O.3     
  41 C41           -0.4108     1.2194     0.0270 C.3     
  42 F42           -1.6720     1.7442     0.3292 F       
  43 F43            0.2669     2.0965    -0.8266 F       
  44 F44           -0.5605    -0.0211    -0.6022 F       
  45 H45           -1.1772     1.7851     2.5806 H       
  46 H46            2.4655     0.5620     4.4421 H       
  47 H47            3.0879    -2.0913     1.0005 H       
  48 H48            5.4246    -2.8473     0.9960 H       
  49 H49            4.2336     1.5684    -0.8807 H       
  50 H50            9.2722    -0.5243     0.5801 H       
  51 H51            5.6597    -1.1632    -1.7418 H       
  52 H52            4.1168    -1.9637    -3.4787 H       
  53 H53            6.5381    -5.4286    -4.0685 H       
  54 H54            6.8056    -0.4268     2.3727 H       
  55 H55            8.3722     0.3166     2.7744 H       
  56 H56            0.8423     1.8824     5.6764 H       
  57 H57           -0.6791     2.3966     4.9086 H       
  58 H58            9.4493    -1.7809     2.7960 H       
  59 H59            8.0653    -2.7620     2.2574 H       
  60 H60            9.4962    -4.7457     2.1942 H       
  61 H61           10.9779    -4.6810     1.2101 H       
  62 H62           10.8802    -3.7645     2.7328 H       
  63 H63            5.7642     1.7869     2.3373 H       
  64 H64            7.3308     2.5303     2.7390 H       
  65 H65            6.4620     3.0260     1.2667 H       
  66 H66           -0.8295    -2.2429     7.2907 H       
  67 H67           -3.1349    -1.4653     6.1241 H       
  68 H68            7.2976     2.8377    -1.7988 H       
@<TRIPOS>BOND
   1    1    2 ar
   2    1    6 ar
   3    1   45 1
   4    2    3 ar
   5    2   25 1
   6    3    4 ar
   7    3   46 1
   8    4    5 ar
   9    5    6 ar
  10    5    7 1
  11    6   41 1
  12    7    8 1
  13    8    9 ar
  14    8   13 ar
  15    9   10 ar
  16    9   47 1
  17   10   11 ar
  18   10   48 1
  19   11   12 ar
  20   11   14 1
  21   12   13 ar
  22   12   38 1
  23   13   49 1
  24   14   15 am
  25   14   16 1
  26   15   17 2
  27   15   18 1
  28   16   24 1
  29   16   30 1
  30   16   50 1
  31   18   19 ar
  32   18   23 ar
  33   19   20 ar
  34   19   51 1
  35   20   21 ar
  36   20   52 1
  37   21   22 ar
  38   21   26 1
  39   22   23 ar
  40   22   53 1
  41   23   34 1
  42   24   32 1
  43   24   54 1
  44   24   55 1
  45   25   27 1
  46   25   56 1
  47   25   57 1
  48   27   35 1
  49   27   28 1
  50   28   37 2
  51   29   30 1
  52   29   31 1
  53   30   58 1
  54   30   59 1
  55   31   60 1
  56   31   61 1
  57   31   62 1
  58   32   33 1
  59   33   63 1
  60   33   64 1
  61   33   65 1
  62   35   36 2
  63   36   37 1
  64   36   66 1
  65   37   67 1
  66   38   39 2
  67   38   40 1
  68   40   68 1
  69   41   42 1
  70   41   43 1
  71   41   44 1

#	End of record

