#	Name: ASD01510121
#	Creating user name:	WinNT
#	Creation time:	15. 06. 2019 19:21

#	Modifying user name:	WinNT
#	Modification time:	15. 06. 2019 19:21

#	Program:	/corina/corina34_cracker 3.40 0067  02.08.2006

@<TRIPOS>MOLECULE
ASD01510121
  64   67    0    0    0
SMALL
NO_CHARGES


@<TRIPOS>ATOM
   1 C1             2.3433     1.1201    -0.4776 C.3     
   2 N2             2.0137    -0.3102    -0.4175 N.3     
   3 C3             2.6295    -0.9436     0.7569 C.3     
   4 C4             2.1984    -2.4105     0.8269 C.3     
   5 N5             2.6006    -3.0961    -0.4092 N.3     
   6 C6             1.9848    -2.4627    -1.5836 C.3     
   7 C7             2.4159    -0.9958    -1.6535 C.3     
   8 C8             2.2895    -4.4462    -0.3524 C.ar    
   9 N9             1.7064    -4.9275     0.7340 N.ar    
  10 C10            1.3927    -6.2118     0.8270 C.ar    
  11 C11            1.6829    -7.0574    -0.2339 C.ar    
  12 C12            2.2999    -6.5151    -1.3675 C.ar    
  13 N13            2.5790    -5.2185    -1.3894 N.ar    
  14 O14            2.6032    -7.3024    -2.4290 O.3     
  15 C15            3.2318    -6.6711    -3.5464 C.3     
  16 C16            3.4911    -7.6948    -4.6214 C.ar    
  17 C17            2.5353    -7.9368    -5.5904 C.ar    
  18 C18            2.7732    -8.8759    -6.5765 C.ar    
  19 C19            3.9669    -9.5728    -6.5938 C.ar    
  20 C20            4.9230    -9.3302    -5.6254 C.ar    
  21 C21            4.6869    -8.3879    -4.6418 C.ar    
  22 S22            1.2853    -8.7722    -0.1561 S.3     
  23 C23            0.6970    -8.9682     1.4932 C.ar    
  24 C24           -0.6631    -8.8695     1.7634 C.ar    
  25 C25           -1.1246    -9.0226     3.0564 C.ar    
  26 C26           -0.2370    -9.2747     4.0848 C.ar    
  27 C27            1.1239    -9.3752     3.8217 C.ar    
  28 C28            1.5908    -9.2273     2.5241 C.ar    
  29 N29            2.0217    -9.6305     4.8642 N.am    
  30 C30            1.6459   -10.4021     5.9033 C.2     
  31 O31            0.5644   -10.9511     5.8911 O.2     
  32 C32            2.5693   -10.5827     7.0804 C.3     
  33 N33            1.9335   -11.4612     8.0714 N.3     
  34 C34            3.8810   -11.2127     6.6077 C.3     
  35 H35            3.4246     1.2414    -0.5419 H       
  36 H36            1.8750     1.5642    -1.3560 H       
  37 H37            1.9748     1.6159     0.4204 H       
  38 H38            3.7148    -0.8872     0.6733 H       
  39 H39            2.3066    -0.4262     1.6603 H       
  40 H40            2.6770    -2.8899     1.6808 H       
  41 H41            1.1155    -2.4664     0.9378 H       
  42 H42            2.3077    -2.9801    -2.4870 H       
  43 H43            0.8995    -2.5191    -1.5000 H       
  44 H44            1.9373    -0.5164    -2.5075 H       
  45 H45            3.4988    -0.9399    -1.7645 H       
  46 H46            0.9174    -6.5953     1.7177 H       
  47 H47            2.5788    -5.8909    -3.9375 H       
  48 H48            4.1766    -6.2292    -3.2299 H       
  49 H49            1.6027    -7.3924    -5.5768 H       
  50 H50            2.0262    -9.0655    -7.3331 H       
  51 H51            4.1524   -10.3070    -7.3638 H       
  52 H52            5.8555    -9.8748    -5.6387 H       
  53 H53            5.4339    -8.1984    -3.8852 H       
  54 H54           -1.3595    -8.6725     0.9618 H       
  55 H55           -2.1816    -8.9448     3.2640 H       
  56 H56           -0.6012    -9.3936     5.0945 H       
  57 H57            2.6479    -9.3053     2.3172 H       
  58 H58            2.9145    -9.2522     4.8389 H       
  59 H59            2.7746    -9.6128     7.5334 H       
  60 H60            1.6745   -12.3445     7.6583 H       
  61 H61            2.5334   -11.5980     8.8711 H       
  62 H62            3.6757   -12.1827     6.1547 H       
  63 H63            4.3528   -10.5609     5.8724 H       
  64 H64            4.5490   -11.3434     7.4591 H       
@<TRIPOS>BOND
   1    1    2 1
   2    1   35 1
   3    1   36 1
   4    1   37 1
   5    2    3 1
   6    2    7 1
   7    3    4 1
   8    3   38 1
   9    3   39 1
  10    4    5 1
  11    4   40 1
  12    4   41 1
  13    5    6 1
  14    5    8 1
  15    6    7 1
  16    6   42 1
  17    6   43 1
  18    7   44 1
  19    7   45 1
  20    8    9 ar
  21    8   13 ar
  22    9   10 ar
  23   10   11 ar
  24   10   46 1
  25   11   12 ar
  26   11   22 1
  27   12   13 ar
  28   12   14 1
  29   14   15 1
  30   15   16 1
  31   15   47 1
  32   15   48 1
  33   16   17 ar
  34   16   21 ar
  35   17   18 ar
  36   17   49 1
  37   18   19 ar
  38   18   50 1
  39   19   20 ar
  40   19   51 1
  41   20   21 ar
  42   20   52 1
  43   21   53 1
  44   22   23 1
  45   23   24 ar
  46   23   28 ar
  47   24   25 ar
  48   24   54 1
  49   25   26 ar
  50   25   55 1
  51   26   27 ar
  52   26   56 1
  53   27   28 ar
  54   27   29 1
  55   28   57 1
  56   29   30 am
  57   29   58 1
  58   30   31 2
  59   30   32 1
  60   32   33 1
  61   32   34 1
  62   32   59 1
  63   33   60 1
  64   33   61 1
  65   34   62 1
  66   34   63 1
  67   34   64 1

#	End of record

