#	Name: ASD01883732
#	Creating user name:	WinNT
#	Creation time:	15. 06. 2019 19:47

#	Modifying user name:	WinNT
#	Modification time:	15. 06. 2019 19:47

#	Program:	/corina/corina34_cracker 3.40 0067  02.08.2006

@<TRIPOS>MOLECULE
ASD01883732
  55   59    0    0    0
SMALL
NO_CHARGES


@<TRIPOS>ATOM
   1 C1             0.4393     1.7799     0.3836 C.2     
   2 C2             0.6214     0.4395     0.2327 C.2     
   3 C3            -0.4684    -0.3757    -0.1152 C.2     
   4 C4            -1.6912     0.1642    -0.2997 C.2     
   5 N5            -1.8883     1.5070    -0.1517 N.pl3   
   6 C6            -0.8461     2.3279     0.1925 C.2     
   7 C7            -2.9971     2.2989    -0.2762 C.2     
   8 C8            -2.6128     3.5676    -0.0146 C.2     
   9 N9            -1.3080     3.5681     0.2681 N.2     
  10 Cl10           1.7739     2.8034     0.8139 Cl      
  11 C11           -4.3867     1.8418    -0.6382 C.3     
  12 C12           -4.6006     2.0035    -2.1445 C.3     
  13 F13           -3.6608     1.2303    -2.8345 F       
  14 F14           -5.8906     1.5791    -2.4805 F       
  15 F15           -4.4459     3.3488    -2.4958 F       
  16 C16            1.9857    -0.1671     0.4375 C.3     
  17 N17            2.0994    -0.6625     1.8157 N.3     
  18 C18            3.3157    -1.4671     1.9869 C.3     
  19 C19            3.5017    -1.8009     3.4707 C.3     
  20 C20            2.2542    -2.5204     3.9788 C.3     
  21 C21            0.9685    -1.7450     3.6999 C.3     
  22 C22            0.8996    -1.4137     2.2055 C.3     
  23 C23            2.1844    -3.9970     3.5679 C.3     
  24 N24            1.7133    -4.2519     4.9481 N.3     
  25 C25            2.3741    -3.0161     5.4257 C.3     
  26 C26            2.3261    -5.3866     5.4847 C.ar    
  27 C27            3.6675    -5.6404     5.2282 C.ar    
  28 C28            4.2704    -6.7630     5.7607 C.ar    
  29 C29            3.5402    -7.6340     6.5484 C.ar    
  30 C30            2.2047    -7.3843     6.8058 C.ar    
  31 C31            1.5969    -6.2608     6.2808 C.ar    
  32 H32           -0.3268    -1.4396    -0.2360 H       
  33 H33           -2.5219    -0.4720    -0.5674 H       
  34 H34           -3.2547     4.4361    -0.0292 H       
  35 H35           -4.5072     0.7936    -0.3645 H       
  36 H36           -5.1189     2.4442    -0.1005 H       
  37 H37            2.1236    -0.9944    -0.2586 H       
  38 H38            2.7500     0.5892     0.2590 H       
  39 H39            3.2239    -2.3907     1.4154 H       
  40 H40            4.1777    -0.9031     1.6304 H       
  41 H41            4.3708    -2.4472     3.5930 H       
  42 H42            3.6475    -0.8804     4.0361 H       
  43 H43            0.1081    -2.3533     3.9787 H       
  44 H44            0.9668    -0.8214     4.2787 H       
  45 H45            0.0132    -0.8111     2.0074 H       
  46 H46            0.8467    -2.3381     1.6304 H       
  47 H47            1.4368    -4.2055     2.8026 H       
  48 H48            3.1563    -4.4382     3.3466 H       
  49 H49            3.4022    -3.1665     5.7551 H       
  50 H50            1.7773    -2.4451     6.1369 H       
  51 H51            4.2382    -4.9607     4.6127 H       
  52 H52            5.3132    -6.9611     5.5613 H       
  53 H53            4.0141    -8.5113     6.9633 H       
  54 H54            1.6373    -8.0666     7.4215 H       
  55 H55            0.5539    -6.0662     6.4825 H       
@<TRIPOS>BOND
   1    1    2 2
   2    1   10 1
   3    1    6 1
   4    2    3 1
   5    2   16 1
   6    3    4 2
   7    3   32 1
   8    4    5 1
   9    4   33 1
  10    5    6 1
  11    5    7 1
  12    6    9 2
  13    7    8 2
  14    7   11 1
  15    8    9 1
  16    8   34 1
  17   11   12 1
  18   11   35 1
  19   11   36 1
  20   12   13 1
  21   12   14 1
  22   12   15 1
  23   16   17 1
  24   16   37 1
  25   16   38 1
  26   17   18 1
  27   17   22 1
  28   18   19 1
  29   18   39 1
  30   18   40 1
  31   19   20 1
  32   19   41 1
  33   19   42 1
  34   20   21 1
  35   20   23 1
  36   20   25 1
  37   21   22 1
  38   21   43 1
  39   21   44 1
  40   22   45 1
  41   22   46 1
  42   23   24 1
  43   23   47 1
  44   23   48 1
  45   24   25 1
  46   24   26 1
  47   25   49 1
  48   25   50 1
  49   26   27 ar
  50   26   31 ar
  51   27   28 ar
  52   27   51 1
  53   28   29 ar
  54   28   52 1
  55   29   30 ar
  56   29   53 1
  57   30   31 ar
  58   30   54 1
  59   31   55 1

#	End of record

