#	Name: ASD01916644
#	Creating user name:	WinNT
#	Creation time:	15. 06. 2019 20:07

#	Modifying user name:	WinNT
#	Modification time:	15. 06. 2019 20:07

#	Program:	/corina/corina34_cracker 3.40 0067  02.08.2006

@<TRIPOS>MOLECULE
ASD01916644
  50   54    0    0    0
SMALL
NO_CHARGES


@<TRIPOS>ATOM
   1 C1            -0.0171     1.4098     0.0098 C.ar    
   2 C2             0.0021    -0.0041     0.0020 C.ar    
   3 C3            -1.1908    -0.7269     0.0073 C.ar    
   4 C4            -2.3844    -0.0664     0.0227 C.ar    
   5 C5            -2.4224     1.3362     0.0318 C.ar    
   6 C6            -1.2419     2.0750     0.0308 C.ar    
   7 N7             1.1574     2.0876     0.0022 N.2     
   8 C8             2.3071     1.4823    -0.0017 C.2     
   9 N9             2.4070     0.1125     0.0101 N.am    
  10 C10            1.3132    -0.6701    -0.0074 C.2     
  11 C11           -3.6844     2.0129     0.0478 C.1     
  12 O12            1.4051    -1.8839    -0.0297 O.2     
  13 C13           -4.7189     2.5676     0.0609 C.1     
  14 C14           -5.9809     3.2443     0.0770 C.ar    
  15 N15           -6.0171     4.5733     0.0856 N.ar    
  16 C16           -7.1573     5.2320     0.1000 C.ar    
  17 C17           -8.3665     4.5604     0.1066 C.ar    
  18 C18           -8.3759     3.1721     0.0980 C.ar    
  19 C19           -7.1654     2.5031     0.0776 C.ar    
  20 C20            3.5791     2.3019    -0.0272 C.3     
  21 C21            4.2523     2.2552     1.3473 C.3     
  22 N22            5.0788     1.0690     1.4570 N.3     
  23 C23            4.3290    -0.1852     1.4364 C.3     
  24 C24            3.7557    -0.4742     0.0582 C.3     
  25 C25            5.9031     0.9992     2.6806 C.3     
  26 C26            6.3737    -0.4761     2.7295 C.3     
  27 C27            5.3341    -1.2567     1.8891 C.3     
  28 C28            3.1925    -0.1172     2.4584 C.3     
  29 H29           -1.1696    -1.8066    -0.0012 H       
  30 H30           -3.3072    -0.6275     0.0275 H       
  31 H31           -1.2751     3.1545     0.0371 H       
  32 H32           -7.1481     6.3120     0.1070 H       
  33 H33           -9.2954     5.1112     0.1187 H       
  34 H34           -9.3079     2.6264     0.1029 H       
  35 H35           -7.1362     1.4236     0.0704 H       
  36 H36            4.2575     1.8950    -0.7771 H       
  37 H37            3.3397     3.3351    -0.2787 H       
  38 H38            4.8734     3.1417     1.4759 H       
  39 H39            3.4877     2.2361     2.1238 H       
  40 H40            3.6970    -1.5510    -0.1002 H       
  41 H41            4.3847    -0.0200    -0.7073 H       
  42 H42            6.7581     1.6710     2.6045 H       
  43 H43            5.3042     1.2388     3.5592 H       
  44 H44            7.3660    -0.5719     2.2886 H       
  45 H45            6.3786    -0.8382     3.7575 H       
  46 H46            4.8381    -2.0102     2.5008 H       
  47 H47            5.8122    -1.7197     1.0259 H       
  48 H48            2.5266     0.7083     2.2069 H       
  49 H49            2.6334    -1.0528     2.4429 H       
  50 H50            3.6079     0.0413     3.4537 H       
@<TRIPOS>BOND
   1    1    2 ar
   2    1    7 1
   3    1    6 ar
   4    2    3 ar
   5    2   10 1
   6    3    4 ar
   7    3   29 1
   8    4    5 ar
   9    4   30 1
  10    5    6 ar
  11    5   11 1
  12    6   31 1
  13    7    8 2
  14    8    9 1
  15    8   20 1
  16    9   10 am
  17    9   24 1
  18   10   12 2
  19   11   13 3
  20   13   14 1
  21   14   15 ar
  22   14   19 ar
  23   15   16 ar
  24   16   17 ar
  25   16   32 1
  26   17   18 ar
  27   17   33 1
  28   18   19 ar
  29   18   34 1
  30   19   35 1
  31   20   21 1
  32   20   36 1
  33   20   37 1
  34   21   22 1
  35   21   38 1
  36   21   39 1
  37   22   23 1
  38   22   25 1
  39   23   24 1
  40   23   28 1
  41   23   27 1
  42   24   40 1
  43   24   41 1
  44   25   26 1
  45   25   42 1
  46   25   43 1
  47   26   27 1
  48   26   44 1
  49   26   45 1
  50   27   46 1
  51   27   47 1
  52   28   48 1
  53   28   49 1
  54   28   50 1

#	End of record

