#	Name: ASD01200394
#	Creating user name:	WinNT
#	Creation time:	15. 06. 2019 19:09

#	Modifying user name:	WinNT
#	Modification time:	15. 06. 2019 19:09

#	Program:	/corina/corina34_cracker 3.40 0067  02.08.2006

@<TRIPOS>MOLECULE
ASD01200394
  25   26    0    0    0
SMALL
NO_CHARGES


@<TRIPOS>ATOM
   1 N1            -0.1549     1.2372    -0.3779 N.ar    
   2 C2            -0.0890    -0.0660    -0.1933 C.ar    
   3 C3             1.1259    -0.7336    -0.2828 C.ar    
   4 C4             2.2773    -0.0052    -0.5711 C.ar    
   5 C5             2.1612     1.3627    -0.7576 C.ar    
   6 C6             0.9168     1.9553    -0.6523 C.ar    
   7 N7             1.1919    -2.1167    -0.0857 N.am    
   8 C8             2.4413    -2.8352    -0.3481 C.3     
   9 C9             0.1060    -2.7885     0.3455 C.2     
  10 O10           -0.9270    -2.1889     0.5807 O.2     
  11 C11            0.1687    -4.2396     0.5312 C.2     
  12 C12           -0.9000    -5.0534     0.7853 C.2     
  13 C13           -0.5572    -6.3781     0.9101 C.2     
  14 C14            0.7483    -6.6432     0.7634 C.2     
  15 S15            1.6296    -5.2151     0.4554 S.3     
  16 Cl16           1.4490    -8.2277     0.8728 Cl      
  17 H17           -0.9885    -0.6204     0.0302 H       
  18 H18            3.2371    -0.4945    -0.6472 H       
  19 H19            3.0330     1.9593    -0.9823 H       
  20 H20            0.8207     3.0212    -0.7971 H       
  21 H21            2.9893    -2.9640     0.5852 H       
  22 H22            2.2157    -3.8125    -0.7748 H       
  23 H23            3.0485    -2.2637    -1.0501 H       
  24 H24           -1.9131    -4.6910     0.8791 H       
  25 H25           -1.2861    -7.1491     1.1118 H       
@<TRIPOS>BOND
   1    1    2 ar
   2    1    6 ar
   3    2    3 ar
   4    2   17 1
   5    3    4 ar
   6    3    7 1
   7    4    5 ar
   8    4   18 1
   9    5    6 ar
  10    5   19 1
  11    6   20 1
  12    7    8 1
  13    7    9 am
  14    8   21 1
  15    8   22 1
  16    8   23 1
  17    9   10 2
  18    9   11 1
  19   11   12 2
  20   11   15 1
  21   12   13 1
  22   12   24 1
  23   13   14 2
  24   13   25 1
  25   14   15 1
  26   14   16 1

#	End of record

