#	Name: ASD00841595
#	Creating user name:	WinNT
#	Creation time:	15. 06. 2019 18:42

#	Modifying user name:	WinNT
#	Modification time:	15. 06. 2019 18:42

#	Program:	/corina/corina34_cracker 3.40 0067  02.08.2006

@<TRIPOS>MOLECULE
ASD00841595
  88   93    0    0    0
SMALL
NO_CHARGES


@<TRIPOS>ATOM
   1 C1            -0.0056     1.3863     0.0350 C.ar    
   2 C2             0.0090    -0.0006     0.0178 C.ar    
   3 C3             1.2192    -0.6791    -0.0019 C.ar    
   4 C4             2.4059     0.0276    -0.0045 C.ar    
   5 C5             2.3886     1.4103     0.0131 C.ar    
   6 C6             1.1842     2.0886     0.0324 C.ar    
   7 C7             1.2388    -2.1859    -0.0201 C.3     
   8 C8             0.4942    -2.7117    -1.2288 C.2     
   9 N9             2.6177    -2.6804    -0.0112 N.am    
  10 C10            3.4640    -2.3347    -1.0016 C.2     
  11 N11            4.7595    -2.7012    -0.9396 N.am    
  12 O12            3.0587    -1.6922    -1.9509 O.2     
  13 C13            5.6738    -2.4348    -2.0604 C.3     
  14 C14            6.9203    -1.7300    -1.5148 C.3     
  15 N15            7.4924    -2.5291    -0.4230 N.3     
  16 C16            6.5577    -2.6362     0.7053 C.3     
  17 C17            5.2978    -3.3727     0.2531 C.3     
  18 N18            8.7693    -1.9836     0.0082 N.3     
  19 C19            9.3416    -2.7830     1.1005 C.3     
  20 C20           10.7178    -2.2249     1.4707 C.3     
  21 N21           10.5818    -0.8166     1.8679 N.3     
  22 C22           10.0095    -0.0172     0.7757 C.3     
  23 C23            8.6333    -0.5753     0.4055 C.3     
  24 H24           10.0292    -0.7296     2.7077 H       
  25 O25            0.7742    -2.5089    -2.3913 O.2     
  26 N26           -0.5342    -3.4457    -0.7725 N.am    
  27 C27            0.4663    -2.7401     1.1554 C.ar    
  28 C28           -0.5814    -3.4843     0.6182 C.ar    
  29 C29            0.6304    -2.6277     2.5127 C.ar    
  30 C30           -0.2647    -3.2677     3.3774 C.ar    
  31 C31           -1.3203    -4.0174     2.8446 C.ar    
  32 C32           -1.4736    -4.1238     1.4788 C.ar    
  33 F33           -2.1898    -4.6391     3.6709 F       
  34 C34           -0.9901    -5.8310    -2.0673 C.ar    
  35 C35            0.1893    -5.9865    -2.7815 C.ar    
  36 C36           -1.6659    -6.9410    -1.5971 C.ar    
  37 C37           -1.1690    -8.2077    -1.8362 C.ar    
  38 C38            0.0103    -8.3685    -2.5501 C.ar    
  39 C39            0.6897    -7.2568    -3.0232 C.ar    
  40 O40            0.4983    -9.6148    -2.7855 O.3     
  41 O41            0.8531    -4.8946    -3.2440 O.3     
  42 C42            2.0606    -5.1294    -3.9713 C.3     
  43 C43           -0.2541   -10.7143    -2.2688 C.3     
  44 C44           -0.1021    -3.1570     4.7958 C.1     
  45 N45            0.0270    -3.0692     5.9211 N.1     
  46 S46           -1.6229    -4.2168    -1.7535 S.o2    
  47 O47           -2.8038    -4.3916    -0.9827 O.2     
  48 O48           -1.6009    -3.5285    -2.9964 O.2     
  49 O49           -1.1599    -0.6937     0.0208 O.3     
  50 C50           -3.5697    -0.8755     0.0423 C.3     
  51 C51           -2.3672     0.0705     0.0421 C.3     
  52 H52           -0.9463     1.9168     0.0459 H       
  53 H53            3.3481    -0.5000    -0.0199 H       
  54 H54            3.3176     1.9611     0.0118 H       
  55 H55            1.1734     3.1685     0.0461 H       
  56 H56            2.9217    -3.2566     0.7074 H       
  57 H57            5.9612    -3.3756    -2.5300 H       
  58 H58            5.1807    -1.7934    -2.7908 H       
  59 H59            7.6562    -1.6236    -2.3119 H       
  60 H60            6.6456    -0.7444    -1.1390 H       
  61 H61            7.0306    -3.1870     1.5183 H       
  62 H62            6.2881    -1.6380     1.0502 H       
  63 H63            4.5563    -3.3541     1.0518 H       
  64 H64            5.5462    -4.4044     0.0043 H       
  65 H65            8.6844    -2.7356     1.9688 H       
  66 H66            9.4441    -3.8191     0.7778 H       
  67 H67           11.1317    -2.7984     2.3001 H       
  68 H68           11.3831    -2.2974     0.6103 H       
  69 H69            9.9070     1.0188     1.0984 H       
  70 H70           10.6667    -0.0647    -0.0926 H       
  71 H71            8.2194    -0.0018    -0.4239 H       
  72 H72            7.9681    -0.5028     1.2659 H       
  73 H73            1.4484    -2.0471     2.9130 H       
  74 H74           -2.2896    -4.7036     1.0732 H       
  75 H75           -2.5838    -6.8180    -1.0414 H       
  76 H76           -1.6986    -9.0736    -1.4671 H       
  77 H77            1.6074    -7.3798    -3.5792 H       
  78 H78            2.4886    -4.1764    -4.2823 H       
  79 H79            2.7714    -5.6565    -3.3349 H       
  80 H80            1.8429    -5.7344    -4.8514 H       
  81 H81           -1.2546   -10.7051    -2.7012 H       
  82 H82            0.2445   -11.6488    -2.5265 H       
  83 H83           -0.3260   -10.6279    -1.1846 H       
  84 H84           -4.4906    -0.2926     0.0586 H       
  85 H85           -3.5464    -1.4930    -0.8556 H       
  86 H86           -3.5288    -1.5149     0.9242 H       
  87 H87           -2.3906     0.6880     0.9400 H       
  88 H88           -2.4081     0.7099    -0.8397 H       
@<TRIPOS>BOND
   1    1    2 ar
   2    1    6 ar
   3    1   52 1
   4    2    3 ar
   5    2   49 1
   6    3    4 ar
   7    3    7 1
   8    4    5 ar
   9    4   53 1
  10    5    6 ar
  11    5   54 1
  12    6   55 1
  13    7    8 1
  14    7    9 1
  15    7   27 1
  16    8   25 2
  17    8   26 am
  18    9   10 am
  19    9   56 1
  20   10   11 am
  21   10   12 2
  22   11   13 1
  23   11   17 1
  24   13   14 1
  25   13   57 1
  26   13   58 1
  27   14   15 1
  28   14   59 1
  29   14   60 1
  30   15   16 1
  31   15   18 1
  32   16   17 1
  33   16   61 1
  34   16   62 1
  35   17   63 1
  36   17   64 1
  37   18   19 1
  38   18   23 1
  39   19   20 1
  40   19   65 1
  41   19   66 1
  42   20   21 1
  43   20   67 1
  44   20   68 1
  45   21   22 1
  46   21   24 1
  47   22   23 1
  48   22   69 1
  49   22   70 1
  50   23   71 1
  51   23   72 1
  52   26   46 am
  53   26   28 1
  54   27   28 ar
  55   27   29 ar
  56   28   32 ar
  57   29   30 ar
  58   29   73 1
  59   30   31 ar
  60   30   44 1
  61   31   32 ar
  62   31   33 1
  63   32   74 1
  64   34   35 ar
  65   34   36 ar
  66   34   46 1
  67   35   41 1
  68   35   39 ar
  69   36   37 ar
  70   36   75 1
  71   37   38 ar
  72   37   76 1
  73   38   39 ar
  74   38   40 1
  75   39   77 1
  76   40   43 1
  77   41   42 1
  78   42   78 1
  79   42   79 1
  80   42   80 1
  81   43   81 1
  82   43   82 1
  83   43   83 1
  84   44   45 3
  85   46   47 2
  86   46   48 2
  87   49   51 1
  88   50   51 1
  89   50   84 1
  90   50   85 1
  91   50   86 1
  92   51   87 1
  93   51   88 1

#	End of record

