#	Name: ASD03330584
#	Creating user name:	WinNT
#	Creation time:	15. 06. 2019 20:37

#	Modifying user name:	WinNT
#	Modification time:	15. 06. 2019 20:37

#	Program:	/corina/corina34_cracker 3.40 0067  02.08.2006

@<TRIPOS>MOLECULE
ASD03330584
  60   62    0    0    0
SMALL
NO_CHARGES


@<TRIPOS>ATOM
   1 C1            -0.3244     1.1693     0.8480 C.2     
   2 N2            -0.3538    -0.1696     1.0820 N.pl3   
   3 C3             0.9809     1.5551     0.8943 C.2     
   4 N4             1.7275     0.4554     1.1362 N.2     
   5 C5             0.9353    -0.5853     1.2446 C.2     
   6 C6             1.3680    -1.9766     1.5003 C.ar    
   7 C7             1.4882     2.9267     0.7129 C.2     
   8 O8             0.7124     3.8387     0.4991 O.2     
   9 C9             3.3161     4.5342     0.6035 C.3     
  10 N10            2.8118     3.1706     0.7838 N.am    
  11 C11            3.4923     4.8195    -0.8893 C.3     
  12 C12            2.1253     4.8050    -1.5762 C.3     
  13 C13            4.1408     6.1930    -1.0729 C.3     
  14 C14            4.3872     3.7458    -1.5116 C.3     
  15 C15            4.6439     4.6752     1.3021 C.2     
  16 N16            5.1807     5.8972     1.4888 N.am    
  17 O17            5.2295     3.6889     1.6963 O.2     
  18 C18            6.5042     6.0299     2.1028 C.3     
  19 C19           -1.5639    -0.9929     1.1561 C.3     
  20 C20           -2.4703    -0.6620    -0.0337 C.3     
  21 C21           -3.3817     0.5082     0.3220 C.3     
  22 N22           -2.7051     1.4505     1.2153 N.3     
  23 C23           -1.5219     2.0410     0.5722 C.3     
  24 C24           -3.6296     2.4946     1.6770 C.3     
  25 C25            0.9311    -4.1558     2.4118 C.ar    
  26 C26            2.1763    -4.5832     1.9816 C.ar    
  27 C27            3.0230    -3.7084     1.3146 C.ar    
  28 C28            2.6241    -2.4087     1.0728 C.ar    
  29 C29            0.5238    -2.8590     2.1747 C.ar    
  30 F30            2.5701    -5.8540     2.2163 F       
  31 F31            4.2368    -4.1304     0.8975 F       
  32 H32            2.6053     5.2435     1.0276 H       
  33 H33            3.4305     2.4432     0.9543 H       
  34 H34            1.4878     5.5699    -1.1328 H       
  35 H35            2.2508     5.0083    -2.6397 H       
  36 H36            1.6633     3.8264    -1.4454 H       
  37 H37            5.0998     6.2142    -0.5553 H       
  38 H38            4.2969     6.3821    -2.1350 H       
  39 H39            3.4877     6.9614    -0.6592 H       
  40 H40            3.9252     2.7672    -1.3808 H       
  41 H41            4.5127     3.9490    -2.5751 H       
  42 H42            5.3611     3.7561    -1.0222 H       
  43 H43            4.6908     6.6889     1.2167 H       
  44 H44            7.2418     5.5088     1.4925 H       
  45 H45            6.7691     7.0850     2.1709 H       
  46 H46            6.4865     5.5946     3.1020 H       
  47 H47           -1.2897    -2.0473     1.1231 H       
  48 H48           -2.0918    -0.7816     2.0861 H       
  49 H49           -1.8563    -0.3948    -0.8938 H       
  50 H50           -3.0778    -1.5329    -0.2798 H       
  51 H51           -3.6711     1.0267    -0.5920 H       
  52 H52           -4.2764     0.1277     0.8148 H       
  53 H53           -1.3474     3.0384     0.9758 H       
  54 H54           -1.6858     2.1055    -0.5035 H       
  55 H55           -4.4573     2.0343     2.2166 H       
  56 H56           -3.1013     3.1809     2.3388 H       
  57 H57           -4.0161     3.0433     0.8182 H       
  58 H58            0.2758    -4.8402     2.9299 H       
  59 H59            3.2827    -1.7282     0.5536 H       
  60 H60           -0.4474    -2.5274     2.5112 H       
@<TRIPOS>BOND
   1    1    2 1
   2    1    3 2
   3    1   23 1
   4    2   19 1
   5    2    5 1
   6    3    4 1
   7    3    7 1
   8    4    5 2
   9    5    6 1
  10    6   29 ar
  11    6   28 ar
  12    7    8 2
  13    7   10 am
  14    9   10 1
  15    9   11 1
  16    9   15 1
  17    9   32 1
  18   10   33 1
  19   11   12 1
  20   11   13 1
  21   11   14 1
  22   12   34 1
  23   12   35 1
  24   12   36 1
  25   13   37 1
  26   13   38 1
  27   13   39 1
  28   14   40 1
  29   14   41 1
  30   14   42 1
  31   15   16 am
  32   15   17 2
  33   16   18 1
  34   16   43 1
  35   18   44 1
  36   18   45 1
  37   18   46 1
  38   19   20 1
  39   19   47 1
  40   19   48 1
  41   20   21 1
  42   20   49 1
  43   20   50 1
  44   21   22 1
  45   21   51 1
  46   21   52 1
  47   22   23 1
  48   22   24 1
  49   23   53 1
  50   23   54 1
  51   24   55 1
  52   24   56 1
  53   24   57 1
  54   25   26 ar
  55   25   29 ar
  56   25   58 1
  57   26   27 ar
  58   26   30 1
  59   27   28 ar
  60   27   31 1
  61   28   59 1
  62   29   60 1

#	End of record

