#	Name: ASD00960111
#	Creating user name:	WinNT
#	Creation time:	15. 06. 2019 18:53

#	Modifying user name:	WinNT
#	Modification time:	15. 06. 2019 18:53

#	Program:	/corina/corina34_cracker 3.40 0067  02.08.2006

@<TRIPOS>MOLECULE
ASD00960111
  39   41    0    0    0
SMALL
NO_CHARGES


@<TRIPOS>ATOM
   1 C1            -0.2400     1.5672    -0.2143 C.3     
   2 C2             0.0599     0.0764     0.0575 C.3     
   3 O3            -0.9586    -0.3404     0.9928 O.3     
   4 C4            -1.0997     0.7602     1.9172 C.3     
   5 C5            -2.4528     0.6889     2.6278 C.3     
   6 C6            -0.0412    -0.7201    -1.2178 C.2     
   7 C7             0.9512    -0.8735    -2.1218 C.2     
   8 N8            -1.1411    -1.3984    -1.6319 N.pl3   
   9 C9            -0.8646    -2.0024    -2.8312 C.2     
  10 C10            0.4577    -1.6864    -3.1676 C.2     
  11 N11           -2.4183    -1.5725    -1.0786 N.2     
  12 C12           -3.3094    -2.2951    -1.7040 C.2     
  13 N13           -3.0524    -2.8852    -2.8672 N.2     
  14 C14           -1.8728    -2.7689    -3.4543 C.2     
  15 N15           -1.6301    -3.3914    -4.6634 N.pl3   
  16 C16           -1.0204     2.0274     1.0373 C.3     
  17 C17            1.1859    -2.1142    -4.3671 C.2     
  18 O18           -2.5340    -0.5252     3.3770 O.3     
  19 O19            1.0156    -3.2326    -4.8159 O.2     
  20 N20            2.0435    -1.2687    -4.9722 N.am    
  21 O21            0.9757     2.3066    -0.3463 O.3     
  22 *22            0.8786     3.4215    -1.2040 Du      
  23 N23           -0.0095     0.7472     2.8958 N.2     
  24 N24            0.1161    -0.1315     3.5855 N.1     
  25 N25            0.2418    -1.0101     4.2751 N.pl3   
  26 O26           -0.3105     3.0651     1.7165 O.3     
  27 *27           -0.6634     4.3664     1.3038 Du      
  28 H28           -0.8516     1.6766    -1.1099 H       
  29 H29            1.0500    -0.0371     0.4992 H       
  30 H30           -2.5544     1.5394     3.3019 H       
  31 H31           -3.2532     0.7138     1.8883 H       
  32 H32            1.9429    -0.4508    -2.0572 H       
  33 H33           -4.2869    -2.4172    -1.2612 H       
  34 H34           -2.1900    -4.1299    -4.9497 H       
  35 H35           -0.8997    -3.0900    -5.2261 H       
  36 H36           -2.0198     2.3642     0.7618 H       
  37 H37           -3.3672    -0.6377     3.8546 H       
  38 H38            2.1793    -0.3773    -4.6145 H       
  39 H39            2.5251    -1.5515    -5.7653 H       
@<TRIPOS>BOND
   1    1    2 1
   2    1   21 1
   3    1   16 1
   4    1   28 1
   5    2    3 1
   6    2    6 1
   7    2   29 1
   8    3    4 1
   9    4    5 1
  10    4   23 1
  11    4   16 1
  12    5   18 1
  13    5   30 1
  14    5   31 1
  15    6    7 2
  16    6    8 1
  17    7   10 1
  18    7   32 1
  19    8    9 1
  20    8   11 1
  21    9   10 2
  22    9   14 1
  23   10   17 1
  24   11   12 2
  25   12   13 1
  26   12   33 1
  27   13   14 2
  28   14   15 1
  29   15   34 1
  30   15   35 1
  31   16   26 1
  32   16   36 1
  33   17   19 2
  34   17   20 am
  35   18   37 1
  36   20   38 1
  37   20   39 1
  38   21   22 1
  39   23   24 2
  40   24   25 2
  41   26   27 1

#	End of record

