#	Name: ASD01000089
#	Creating user name:	WinNT
#	Creation time:	15. 06. 2019 18:54

#	Modifying user name:	WinNT
#	Modification time:	15. 06. 2019 18:54

#	Program:	/corina/corina34_cracker 3.40 0067  02.08.2006

@<TRIPOS>MOLECULE
ASD01000089
  52   54    0    0    0
SMALL
NO_CHARGES


@<TRIPOS>ATOM
   1 N1             1.2368    -1.1335     1.4074 N.3     
   2 C2             2.6029    -0.6414     1.1849 C.3     
   3 C3             0.1116     3.3377    -4.4009 C.3     
   4 C4             6.5843     1.2580    -3.0594 C.ar    
   5 C5             3.0675    -4.7631    -3.2926 C.ar    
   6 C6             6.0393     0.5520    -4.1156 C.ar    
   7 C7             5.8846     1.3766    -1.8731 C.ar    
   8 C8             1.8287    -4.1942    -3.0631 C.ar    
   9 C9             4.1991    -3.9694    -3.3151 C.ar    
  10 C10            0.4656    -0.2051    -5.6563 C.ar    
  11 C11            0.0728     1.1161    -5.5536 C.ar    
  12 C12            4.7939    -0.0337    -3.9861 C.ar    
  13 C13            4.6390     0.7913    -1.7437 C.ar    
  14 C14            1.7213    -2.8313    -2.8581 C.ar    
  15 C15            4.0916    -2.6065    -3.1105 C.ar    
  16 C16            1.3279    -0.7447    -4.7199 C.ar    
  17 C17            1.4024     1.3580    -3.5771 C.ar    
  18 C18            2.1915    -0.2878    -1.2539 C.3     
  19 C19            0.5407     1.8975    -4.5134 C.ar    
  20 C20            4.0937     0.0861    -2.8003 C.ar    
  21 C21            2.8528    -2.0375    -2.8820 C.ar    
  22 C22            1.7960     0.0367    -3.6803 C.ar    
  23 C23            3.5318    -1.2637     2.1954 C.2     
  24 O24            3.2100    -2.2782     2.7673 O.2     
  25 C25            3.0575    -1.0191    -0.2263 C.3     
  26 C26            2.7355    -0.5516    -2.6594 C.3     
  27 O27            4.7165    -0.6909     2.4600 O.3     
  28 H28            0.5839    -0.6823     0.7842 H       
  29 H29            1.1938    -2.1370     1.3114 H       
  30 H30            2.6208     0.4430     1.2944 H       
  31 H31           -0.7949     3.4008    -3.7990 H       
  32 H32            0.9038     3.9169    -3.9264 H       
  33 H33           -0.0844     3.7373    -5.3959 H       
  34 H34            7.5592     1.7118    -3.1591 H       
  35 H35            3.1520    -5.8284    -3.4484 H       
  36 H36            6.5857     0.4597    -5.0426 H       
  37 H37            6.3106     1.9279    -1.0478 H       
  38 H38            0.9446    -4.8142    -3.0459 H       
  39 H39            5.1670    -4.4139    -3.4940 H       
  40 H40            0.0966    -0.8168    -6.4662 H       
  41 H41           -0.6005     1.5377    -6.2852 H       
  42 H42            4.3678    -0.5846    -4.8115 H       
  43 H43            4.0921     0.8846    -0.8172 H       
  44 H44            0.7534    -2.3868    -2.6795 H       
  45 H45            4.9756    -1.9864    -3.1288 H       
  46 H46            1.6354    -1.7768    -4.8005 H       
  47 H47            1.7679     1.9684    -2.7646 H       
  48 H48            1.1654    -0.6496    -1.1877 H       
  49 H49            2.2130     0.7829    -1.0511 H       
  50 H50            4.1007    -0.7329    -0.3607 H       
  51 H51            2.9552    -2.0954    -0.3650 H       
  52 H52            5.2782    -1.1267     3.1155 H       
@<TRIPOS>BOND
   1    1    2 1
   2    1   28 1
   3    1   29 1
   4    2   23 1
   5    2   25 1
   6    2   30 1
   7    3   19 1
   8    3   31 1
   9    3   32 1
  10    3   33 1
  11    4    6 ar
  12    4    7 ar
  13    4   34 1
  14    5    8 ar
  15    5    9 ar
  16    5   35 1
  17    6   12 ar
  18    6   36 1
  19    7   13 ar
  20    7   37 1
  21    8   14 ar
  22    8   38 1
  23    9   15 ar
  24    9   39 1
  25   10   11 ar
  26   10   16 ar
  27   10   40 1
  28   11   19 ar
  29   11   41 1
  30   12   20 ar
  31   12   42 1
  32   13   20 ar
  33   13   43 1
  34   14   21 ar
  35   14   44 1
  36   15   21 ar
  37   15   45 1
  38   16   22 ar
  39   16   46 1
  40   17   19 ar
  41   17   22 ar
  42   17   47 1
  43   18   25 1
  44   18   26 1
  45   18   48 1
  46   18   49 1
  47   20   26 1
  48   21   26 1
  49   22   26 1
  50   23   24 2
  51   23   27 1
  52   25   50 1
  53   25   51 1
  54   27   52 1

#	End of record

