#	Name: ASD03731838
#	Creating user name:	WinNT
#	Creation time:	15. 06. 2019 20:46

#	Modifying user name:	WinNT
#	Modification time:	15. 06. 2019 20:46

#	Program:	/corina/corina34_cracker 3.40 0067  02.08.2006

@<TRIPOS>MOLECULE
ASD03731838
  37   38    0    0    0
SMALL
NO_CHARGES


@<TRIPOS>ATOM
   1 C1            -0.4039     1.1046    -1.9600 C.2     
   2 C2            -0.2823    -0.2735    -1.4499 C.ar    
   3 C3             0.9016    -0.9940    -1.6486 C.ar    
   4 C4             1.0100    -2.2837    -1.1691 C.ar    
   5 C5            -0.0530    -2.8656    -0.4908 C.ar    
   6 C6            -1.2313    -2.1522    -0.2915 C.ar    
   7 C7            -1.3467    -0.8627    -0.7613 C.ar    
   8 O8             0.5250     1.6171    -2.5543 O.2     
   9 N9            -1.5465     1.7943    -1.7723 N.am    
  10 S10           -1.6830     3.3420    -2.3452 S.o2    
  11 O11           -2.9851     3.7492    -1.9477 O.2     
  12 O12           -0.5261     4.0022    -1.8504 O.2     
  13 C13           -1.5936     3.1667    -4.1485 C.3     
  14 O14            0.0574    -4.1341    -0.0213 O.3     
  15 C15            1.2601    -4.7567    -0.1412 C.ar    
  16 C16            2.2108    -4.6280     0.8609 C.ar    
  17 C17            3.4326    -5.2605     0.7390 C.ar    
  18 C18            3.7092    -6.0240    -0.3856 C.ar    
  19 C19            2.7587    -6.1527    -1.3876 C.ar    
  20 C20            1.5346    -5.5253    -1.2630 C.ar    
  21 O21            4.9124    -6.6459    -0.5059 O.3     
  22 C22            5.1292    -7.4156    -1.6902 C.3     
  23 F23            1.9356    -0.4281    -2.3088 F       
  24 Cl24          -2.5555    -2.8867     0.5573 Cl      
  25 H25            1.9224    -2.8410    -1.3218 H       
  26 H26           -2.2602    -0.3090    -0.6019 H       
  27 H27           -2.2889     1.3840    -1.3017 H       
  28 H28           -2.4100     2.5319    -4.4928 H       
  29 H29           -1.6762     4.1491    -4.6135 H       
  30 H30           -0.6408     2.7139    -4.4227 H       
  31 H31            1.9957    -4.0330     1.7362 H       
  32 H32            4.1727    -5.1604     1.5191 H       
  33 H33            2.9742    -6.7472    -2.2631 H       
  34 H34            0.7927    -5.6295    -2.0409 H       
  35 H35            5.0448    -6.7695    -2.5640 H       
  36 H36            6.1255    -7.8568    -1.6594 H       
  37 H37            4.3828    -8.2077    -1.7505 H       
@<TRIPOS>BOND
   1    1    2 1
   2    1    8 2
   3    1    9 am
   4    2    3 ar
   5    2    7 ar
   6    3    4 ar
   7    3   23 1
   8    4    5 ar
   9    4   25 1
  10    5    6 ar
  11    5   14 1
  12    6    7 ar
  13    6   24 1
  14    7   26 1
  15    9   10 am
  16    9   27 1
  17   10   11 2
  18   10   12 2
  19   10   13 1
  20   13   28 1
  21   13   29 1
  22   13   30 1
  23   14   15 1
  24   15   16 ar
  25   15   20 ar
  26   16   17 ar
  27   16   31 1
  28   17   18 ar
  29   17   32 1
  30   18   19 ar
  31   18   21 1
  32   19   20 ar
  33   19   33 1
  34   20   34 1
  35   21   22 1
  36   22   35 1
  37   22   36 1
  38   22   37 1

#	End of record

