#	Name: ASD02030514
#	Creating user name:	WinNT
#	Creation time:	15. 06. 2019 20:15

#	Modifying user name:	WinNT
#	Modification time:	15. 06. 2019 20:15

#	Program:	/corina/corina34_cracker 3.40 0067  02.08.2006

@<TRIPOS>MOLECULE
ASD02030514
  66   70    0    0    0
SMALL
NO_CHARGES


@<TRIPOS>ATOM
   1 N1            -0.2108     1.4214    -0.1412 N.am    
   2 C2            -0.0213    -0.0122     0.1211 C.3     
   3 C3            -0.9182    -0.4179     1.2973 C.3     
   4 N4            -2.2769     0.0826     1.0462 N.am    
   5 C5            -2.4665     1.5161     0.7839 C.3     
   6 C6            -1.5703     1.9228    -0.3867 C.3     
   7 C7             0.8425     2.2621    -0.1509 C.2     
   8 C8             2.1848     1.7696     0.2250 C.2     
   9 N9             3.2639     2.5061     0.3796 N.2     
  10 N10            2.5168     0.4897     0.4750 N.2     
  11 C11            3.7912     0.4694     0.7721 C.2     
  12 N12            4.2449     1.7381     0.7083 N.pl3   
  13 O13            0.6889     3.4253    -0.4687 O.2     
  14 C14           -3.3303    -0.7581     1.0559 C.2     
  15 C15           -4.7023    -0.2259     0.9120 C.ar    
  16 O16           -3.1525    -1.9538     1.1830 O.2     
  17 C17           -1.5428     3.4479    -0.5067 C.3     
  18 C18           -2.1088     1.3120    -1.6820 C.3     
  19 C19            5.5608     2.1509     0.9571 C.ar    
  20 C20            5.8990     3.4934     0.8570 C.ar    
  21 C21            7.1980     3.8976     1.1035 C.ar    
  22 C22            8.1599     2.9648     1.4492 C.ar    
  23 C23            7.8248     1.6269     1.5495 C.ar    
  24 C24            6.5276     1.2184     1.3099 C.ar    
  25 Cl25           7.6227     5.5762     0.9787 Cl      
  26 C26           -5.6718    -0.9665     0.2383 C.ar    
  27 C27           -6.9603    -0.4589     0.1077 C.ar    
  28 C28           -7.2752     0.7861     0.6504 C.ar    
  29 C29           -6.3108     1.5168     1.3174 C.ar    
  30 C30           -5.0315     1.0176     1.4558 C.ar    
  31 C31           -7.9982    -1.2414    -0.6087 C.ar    
  32 C32           -9.2882    -0.7342    -0.7399 C.ar    
  33 C33          -10.2526    -1.4691    -1.4102 C.ar    
  34 C34           -9.9318    -2.7074    -1.9487 C.ar    
  35 C35           -8.6510    -3.2113    -1.8186 C.ar    
  36 C36           -7.6828    -2.4833    -1.1569 C.ar    
  37 O37          -11.5130    -0.9777    -1.5401 O.3     
  38 C38          -12.4564    -1.7887    -2.2431 C.3     
  39 H39           -0.2970    -0.5856    -0.7639 H       
  40 H40            1.0217    -0.2031     0.3736 H       
  41 H41           -0.9387    -1.5043     1.3839 H       
  42 H42           -0.5323     0.0178     2.2189 H       
  43 H43           -3.5095     1.7071     0.5315 H       
  44 H44           -2.1908     2.0896     1.6689 H       
  45 H45            4.3733    -0.4043     1.0254 H       
  46 H46           -1.0464     3.8721     0.3660 H       
  47 H47           -0.9991     3.7317    -1.4077 H       
  48 H48           -2.5634     3.8263    -0.5639 H       
  49 H49           -3.1222     1.6720    -1.8597 H       
  50 H50           -1.4685     1.6032    -2.5147 H       
  51 H51           -2.1193     0.2256    -1.5945 H       
  52 H52            5.1485     4.2214     0.5865 H       
  53 H53            9.1743     3.2822     1.6407 H       
  54 H54            8.5778     0.9011     1.8191 H       
  55 H55            6.2669     0.1733     1.3888 H       
  56 H56           -5.4237    -1.9304    -0.1809 H       
  57 H57           -8.2754     1.1805     0.5488 H       
  58 H58           -6.5601     2.4807     1.7358 H       
  59 H59           -4.2818     1.5930     1.9785 H       
  60 H60           -9.5365     0.2294    -0.3201 H       
  61 H61          -10.6849    -3.2791    -2.4706 H       
  62 H62           -8.4063    -4.1754    -2.2394 H       
  63 H63           -6.6831    -2.8795    -1.0572 H       
  64 H64          -12.5661    -2.7448    -1.7313 H       
  65 H65          -13.4202    -1.2806    -2.2744 H       
  66 H66          -12.1024    -1.9593    -3.2598 H       
@<TRIPOS>BOND
   1    1    2 1
   2    1    7 am
   3    1    6 1
   4    2    3 1
   5    2   39 1
   6    2   40 1
   7    3    4 1
   8    3   41 1
   9    3   42 1
  10    4    5 1
  11    4   14 am
  12    5    6 1
  13    5   43 1
  14    5   44 1
  15    6   17 1
  16    6   18 1
  17    7    8 1
  18    7   13 2
  19    8    9 2
  20    8   10 1
  21    9   12 1
  22   10   11 2
  23   11   12 1
  24   11   45 1
  25   12   19 1
  26   14   15 1
  27   14   16 2
  28   15   26 ar
  29   15   30 ar
  30   17   46 1
  31   17   47 1
  32   17   48 1
  33   18   49 1
  34   18   50 1
  35   18   51 1
  36   19   20 ar
  37   19   24 ar
  38   20   21 ar
  39   20   52 1
  40   21   22 ar
  41   21   25 1
  42   22   23 ar
  43   22   53 1
  44   23   24 ar
  45   23   54 1
  46   24   55 1
  47   26   27 ar
  48   26   56 1
  49   27   28 ar
  50   27   31 1
  51   28   29 ar
  52   28   57 1
  53   29   30 ar
  54   29   58 1
  55   30   59 1
  56   31   32 ar
  57   31   36 ar
  58   32   33 ar
  59   32   60 1
  60   33   34 ar
  61   33   37 1
  62   34   35 ar
  63   34   61 1
  64   35   36 ar
  65   35   62 1
  66   36   63 1
  67   37   38 1
  68   38   64 1
  69   38   65 1
  70   38   66 1

#	End of record

