#	Name: ASD02038184
#	Creating user name:	WinNT
#	Creation time:	15. 06. 2019 20:16

#	Modifying user name:	WinNT
#	Modification time:	15. 06. 2019 20:16

#	Program:	/corina/corina34_cracker 3.40 0067  02.08.2006

@<TRIPOS>MOLECULE
ASD02038184
  52   54    0    0    0
SMALL
NO_CHARGES


@<TRIPOS>ATOM
   1 C1            -0.5729     1.9467    -0.5871 C.3     
   2 C2            -0.4246     0.4274    -0.4532 C.3     
   3 N3             0.4373    -0.0557    -1.5427 N.am    
   4 C4             0.0488    -1.0777    -2.3307 C.2     
   5 C5             0.9477    -1.5567    -3.4414 C.3     
   6 C6             0.2750    -2.7172    -4.1773 C.3     
   7 C7             1.1739    -3.1962    -5.2880 C.ar    
   8 C8             2.1017    -4.1921    -5.0437 C.ar    
   9 C9             1.0652    -2.6428    -6.5507 C.ar    
  10 C10            1.8874    -3.0794    -7.5708 C.ar    
  11 C11            2.8244    -4.0756    -7.3274 C.ar    
  12 C12            2.9270    -4.6333    -6.0593 C.ar    
  13 N13            3.6574    -4.5196    -8.3568 N.am    
  14 O14           -1.0242    -1.6120    -2.1459 O.2     
  15 C15            1.7342     0.6065    -1.7499 C.3     
  16 C16            1.5008     2.1188    -1.8327 C.3     
  17 N17            0.7595     2.5624    -0.6445 N.3     
  18 C18            0.6693     3.9570    -0.6021 C.ar    
  19 C19            0.0043     4.5791     0.4467 C.ar    
  20 C20           -0.0843     5.9570     0.4878 C.ar    
  21 C21            0.4886     6.7191    -0.5157 C.ar    
  22 C22            1.1528     6.1012    -1.5644 C.ar    
  23 C23            1.2492     4.7219    -1.6053 C.ar    
  24 F24            1.7110     6.8466    -2.5432 F       
  25 F25            0.4002     8.0666    -0.4736 F       
  26 S26            4.9264    -3.5810    -8.8581 S.o2    
  27 O27            5.5454    -4.3468    -9.8827 O.2     
  28 O28            4.3383    -2.3186    -9.1408 O.2     
  29 C29            6.0077    -3.4687    -7.4060 C.3     
  30 H30           -1.1209     2.1796    -1.5001 H       
  31 H31           -1.1168     2.3363     0.2735 H       
  32 H32            0.0306     0.1872     0.5076 H       
  33 H33           -1.4047    -0.0440    -0.5253 H       
  34 H34            1.1290    -0.7398    -4.1400 H       
  35 H35            1.8958    -1.8932    -3.0220 H       
  36 H36            0.0938    -3.5341    -3.4788 H       
  37 H37           -0.6731    -2.3807    -4.5968 H       
  38 H38            2.1813    -4.6250    -4.0575 H       
  39 H39            0.3363    -1.8685    -6.7393 H       
  40 H40            1.8017    -2.6470    -8.5567 H       
  41 H41            3.6547    -5.4078    -5.8666 H       
  42 H42            3.4927    -5.3776    -8.7781 H       
  43 H43            2.3968     0.3836    -0.9137 H       
  44 H44            2.1812     0.2536    -2.6792 H       
  45 H45            2.4608     2.6332    -1.8755 H       
  46 H46            0.9239     2.3493    -2.7283 H       
  47 H47           -0.4437     3.9856     1.2299 H       
  48 H48           -0.6015     6.4402     1.3035 H       
  49 H49            1.7664     4.2400    -2.4218 H       
  50 H50            6.2584    -4.4718    -7.0612 H       
  51 H51            6.9211    -2.9374    -7.6733 H       
  52 H52            5.4932    -2.9292    -6.6107 H       
@<TRIPOS>BOND
   1    1    2 1
   2    1   17 1
   3    1   30 1
   4    1   31 1
   5    2    3 1
   6    2   32 1
   7    2   33 1
   8    3    4 am
   9    3   15 1
  10    4    5 1
  11    4   14 2
  12    5    6 1
  13    5   34 1
  14    5   35 1
  15    6    7 1
  16    6   36 1
  17    6   37 1
  18    7    8 ar
  19    7    9 ar
  20    8   12 ar
  21    8   38 1
  22    9   10 ar
  23    9   39 1
  24   10   11 ar
  25   10   40 1
  26   11   12 ar
  27   11   13 1
  28   12   41 1
  29   13   26 am
  30   13   42 1
  31   15   16 1
  32   15   43 1
  33   15   44 1
  34   16   17 1
  35   16   45 1
  36   16   46 1
  37   17   18 1
  38   18   19 ar
  39   18   23 ar
  40   19   20 ar
  41   19   47 1
  42   20   21 ar
  43   20   48 1
  44   21   22 ar
  45   21   25 1
  46   22   23 ar
  47   22   24 1
  48   23   49 1
  49   26   27 2
  50   26   28 2
  51   26   29 1
  52   29   50 1
  53   29   51 1
  54   29   52 1

#	End of record

