#	Name: ASD01882948
#	Creating user name:	WinNT
#	Creation time:	15. 06. 2019 19:45

#	Modifying user name:	WinNT
#	Modification time:	15. 06. 2019 19:45

#	Program:	/corina/corina34_cracker 3.40 0067  02.08.2006

@<TRIPOS>MOLECULE
ASD01882948
  40   42    0    0    0
SMALL
NO_CHARGES


@<TRIPOS>ATOM
   1 O1            -0.0173     1.4248     0.0099 O.3     
   2 C2             0.0021    -0.0041     0.0020 C.3     
   3 C3             1.2831     0.8325    -0.0057 C.3     
   4 C4            -0.3680    -0.7292     1.2974 C.3     
   5 C5            -0.3928    -0.7153    -1.2938 C.3     
   6 O6            -1.6384    -1.3900    -1.1063 O.3     
   7 C7            -2.1345    -2.0763    -2.1693 C.ar    
   8 C8            -3.3395    -2.7545    -2.0574 C.ar    
   9 C9            -3.8416    -3.4513    -3.1394 C.ar    
  10 C10           -3.1443    -3.4732    -4.3331 C.ar    
  11 C11           -1.9429    -2.7984    -4.4470 C.ar    
  12 C12           -1.4395    -2.0950    -3.3698 C.ar    
  13 C13           -3.6944    -4.2342    -5.5118 C.3     
  14 C14           -3.9198    -3.2720    -6.6798 C.3     
  15 C15           -4.4782    -4.0446    -7.8765 C.3     
  16 C16           -3.4822    -5.1285    -8.2936 C.3     
  17 C17           -3.2568    -6.0907    -7.1256 C.3     
  18 C18           -2.6984    -5.3181    -5.9289 C.3     
  19 H19            1.8523     0.8812    -0.9340 H       
  20 H20            1.8699     0.8713     0.9120 H       
  21 H21           -1.3208    -1.2424     1.1671 H       
  22 H22            0.4063    -1.4568     1.5405 H       
  23 H23           -0.4533    -0.0050     2.1076 H       
  24 H24           -0.4934     0.0176    -2.0944 H       
  25 H25            0.3767    -1.4402    -1.5594 H       
  26 H26           -3.8844    -2.7380    -1.1251 H       
  27 H27           -4.7795    -3.9798    -3.0526 H       
  28 H28           -1.3997    -2.8176    -5.3803 H       
  29 H29           -0.5035    -1.5641    -3.4608 H       
  30 H30           -4.6412    -4.6978    -5.2351 H       
  31 H31           -4.6293    -2.4998    -6.3827 H       
  32 H32           -2.9729    -2.8083    -6.9565 H       
  33 H33           -5.4251    -4.5082    -7.5998 H       
  34 H34           -4.6388    -3.3591    -8.7087 H       
  35 H35           -3.8801    -5.6789    -9.1462 H       
  36 H36           -2.5354    -4.6649    -8.5703 H       
  37 H37           -4.2037    -6.5544    -6.8489 H       
  38 H38           -2.5473    -6.8629    -7.4227 H       
  39 H39           -1.7515    -4.8545    -6.2055 H       
  40 H40           -2.5378    -6.0036    -5.0967 H       
@<TRIPOS>BOND
   1    1    2 1
   2    1    3 1
   3    2    3 1
   4    2    4 1
   5    2    5 1
   6    3   19 1
   7    3   20 1
   8    4   21 1
   9    4   22 1
  10    4   23 1
  11    5    6 1
  12    5   24 1
  13    5   25 1
  14    6    7 1
  15    7    8 ar
  16    7   12 ar
  17    8    9 ar
  18    8   26 1
  19    9   10 ar
  20    9   27 1
  21   10   11 ar
  22   10   13 1
  23   11   12 ar
  24   11   28 1
  25   12   29 1
  26   13   14 1
  27   13   18 1
  28   13   30 1
  29   14   15 1
  30   14   31 1
  31   14   32 1
  32   15   16 1
  33   15   33 1
  34   15   34 1
  35   16   17 1
  36   16   35 1
  37   16   36 1
  38   17   18 1
  39   17   37 1
  40   17   38 1
  41   18   39 1
  42   18   40 1

#	End of record

