#	Name: ASD05313181
#	Creating user name:	WinNT
#	Creation time:	15. 06. 2019 20:58

#	Modifying user name:	WinNT
#	Modification time:	15. 06. 2019 20:58

#	Program:	/corina/corina34_cracker 3.40 0067  02.08.2006

@<TRIPOS>MOLECULE
ASD05313181
  40   43    0    0    0
SMALL
NO_CHARGES


@<TRIPOS>ATOM
   1 C1            -0.0722     0.8191     1.0228 C.2     
   2 C2             0.1135    -0.6175     0.5960 C.3     
   3 N3             0.9290     1.7313     1.0490 N.pl3   
   4 N4             1.4568    -0.7178    -0.0053 N.am    
   5 C5             2.5709    -0.0357     0.6706 C.3     
   6 C6             2.3159     1.4762     0.6633 C.3     
   7 N7            -0.9051     2.6425     1.7063 N.2     
   8 N8            -1.1581     1.4103     1.4252 N.2     
   9 C9             0.3709     2.8916     1.4931 C.2     
  10 C10            1.0643     4.1820     1.6991 C.ar    
  11 N11            0.3733     5.2260     2.1400 N.ar    
  12 C12            0.9628     6.3925     2.3344 C.ar    
  13 C13            2.3195     6.5176     2.0720 C.ar    
  14 C14            3.0117     5.4069     1.6124 C.ar    
  15 N15            2.3638     4.2673     1.4440 N.ar    
  16 C16            0.1709     7.5730     2.8348 C.3     
  17 C17            1.6574    -1.4149    -1.1412 C.2     
  18 O18            2.7494    -1.4050    -1.6756 O.2     
  19 C19            0.5506    -2.1908    -1.7369 C.ar    
  20 C20            0.3196    -2.1394    -3.1141 C.ar    
  21 C21           -0.7180    -2.8687    -3.6646 C.ar    
  22 C22           -1.5268    -3.6485    -2.8520 C.ar    
  23 C23           -1.3007    -3.7013    -1.4867 C.ar    
  24 C24           -0.2652    -2.9832    -0.9269 C.ar    
  25 F25           -0.9443    -2.8213    -4.9957 F       
  26 Cl26          -2.8284    -4.5617    -3.5488 Cl      
  27 Cl27           1.3319    -1.1620    -4.1308 Cl      
  28 H28            0.0438    -1.2750     1.4626 H       
  29 H29           -0.6443    -0.8880    -0.1392 H       
  30 H30            2.6429    -0.3879     1.6996 H       
  31 H31            3.5016    -0.2506     0.1455 H       
  32 H32            2.4942     1.8707    -0.3370 H       
  33 H33            2.9864     1.9622     1.3722 H       
  34 H34            2.8257     7.4597     2.2221 H       
  35 H35            4.0683     5.4715     1.3985 H       
  36 H36            0.1919     7.5890     3.9244 H       
  37 H37            0.6087     8.4938     2.4493 H       
  38 H38           -0.8606     7.4900     2.4924 H       
  39 H39           -1.9348    -4.3100    -0.8592 H       
  40 H40           -0.0884    -3.0298     0.1375 H       
@<TRIPOS>BOND
   1    1    2 1
   2    1    3 1
   3    1    8 2
   4    2    4 1
   5    2   28 1
   6    2   29 1
   7    3    6 1
   8    3    9 1
   9    4    5 1
  10    4   17 am
  11    5    6 1
  12    5   30 1
  13    5   31 1
  14    6   32 1
  15    6   33 1
  16    7    8 1
  17    7    9 2
  18    9   10 1
  19   10   11 ar
  20   10   15 ar
  21   11   12 ar
  22   12   13 ar
  23   12   16 1
  24   13   14 ar
  25   13   34 1
  26   14   15 ar
  27   14   35 1
  28   16   36 1
  29   16   37 1
  30   16   38 1
  31   17   18 2
  32   17   19 1
  33   19   20 ar
  34   19   24 ar
  35   20   21 ar
  36   20   27 1
  37   21   22 ar
  38   21   25 1
  39   22   23 ar
  40   22   26 1
  41   23   24 ar
  42   23   39 1
  43   24   40 1

#	End of record

