#	Name: ASD04840076
#	Creating user name:	WinNT
#	Creation time:	15. 06. 2019 20:52

#	Modifying user name:	WinNT
#	Modification time:	15. 06. 2019 20:52

#	Program:	/corina/corina34_cracker 3.40 0067  02.08.2006

@<TRIPOS>MOLECULE
ASD04840076
  33   36    0    0    0
SMALL
NO_CHARGES


@<TRIPOS>ATOM
   1 C1            -0.0170     1.4037     0.0098 C.ar    
   2 C2             1.1923     2.1196     0.0021 C.ar    
   3 C3             2.3990     1.4267    -0.0136 C.ar    
   4 C4             2.4074     0.0478    -0.0219 C.ar    
   5 C5             1.2229    -0.6694    -0.0145 C.ar    
   6 C6             0.0021    -0.0041     0.0020 C.ar    
   7 C7            -1.2641    -0.7677     0.0104 C.ar    
   8 C8            -2.1508    -0.6882    -1.0858 C.ar    
   9 C9            -3.3522    -1.4221    -1.0624 C.ar    
  10 C10           -3.6512    -2.2168     0.0405 C.ar    
  11 C11           -2.7769    -2.2857     1.1043 C.ar    
  12 C12           -1.5886    -1.5737     1.0938 C.ar    
  13 C13           -2.1176     0.0145    -2.3097 C.2     
  14 C14           -3.2557    -0.2874    -2.9926 C.2     
  15 N15           -4.0148    -1.1630    -2.2395 N.pl3   
  16 C16           -3.6187     0.2337    -4.3161 C.2     
  17 O17           -2.8735     1.0026    -4.8921 O.2     
  18 O18           -4.7788    -0.1405    -4.8932 O.3     
  19 N19            0.8710     3.4590     0.0128 N.pl3   
  20 C20           -0.4880     3.6105     0.0268 C.2     
  21 C21           -1.0820     2.4049     0.0312 C.2     
  22 H22            3.3319     1.9707    -0.0196 H       
  23 H23            3.3498    -0.4795    -0.0348 H       
  24 H24            1.2473    -1.7491    -0.0216 H       
  25 H25           -4.5717    -2.7812     0.0632 H       
  26 H26           -3.0196    -2.9057     1.9547 H       
  27 H27           -0.9134    -1.6426     1.9338 H       
  28 H28           -1.3303     0.6738    -2.6442 H       
  29 H29           -4.8729    -1.5338    -2.4984 H       
  30 H30           -4.9745     0.2289    -5.7652 H       
  31 H31            1.5130     4.1862     0.0109 H       
  32 H32           -1.0067     4.5577     0.0378 H       
  33 H33           -2.1446     2.2123     0.0454 H       
@<TRIPOS>BOND
   1    1    6 ar
   2    1    2 ar
   3    1   21 1
   4    2    3 ar
   5    2   19 1
   6    3    4 ar
   7    3   22 1
   8    4    5 ar
   9    4   23 1
  10    5    6 ar
  11    5   24 1
  12    6    7 1
  13    7    8 ar
  14    7   12 ar
  15    8   13 1
  16    8    9 ar
  17    9   10 ar
  18    9   15 1
  19   10   11 ar
  20   10   25 1
  21   11   12 ar
  22   11   26 1
  23   12   27 1
  24   13   14 2
  25   13   28 1
  26   14   15 1
  27   14   16 1
  28   15   29 1
  29   16   17 2
  30   16   18 1
  31   18   30 1
  32   19   20 1
  33   19   31 1
  34   20   21 2
  35   20   32 1
  36   21   33 1

#	End of record

