#	Name: ASD01840275
#	Creating user name:	WinNT
#	Creation time:	15. 06. 2019 19:37

#	Modifying user name:	WinNT
#	Modification time:	15. 06. 2019 19:37

#	Program:	/corina/corina34_cracker 3.40 0067  02.08.2006

@<TRIPOS>MOLECULE
ASD01840275
  44   47    0    0    0
SMALL
NO_CHARGES


@<TRIPOS>ATOM
   1 C1            -0.0579     1.5592     0.3158 C.3     
   2 C2            -0.0890     0.0539     0.2512 C.ar    
   3 N3            -0.3200    -0.5484    -0.9029 N.ar    
   4 N4            -0.3581    -1.8241    -1.0206 N.ar    
   5 C5            -0.1664    -2.6370     0.0183 C.ar    
   6 S6            -0.1658    -4.3925     0.1298 S.3     
   7 C7             0.1687    -4.3341     1.8518 C.2     
   8 C8             0.2655    -3.0685     2.2730 C.2     
   9 C9             0.0860    -2.0901     1.2866 C.ar    
  10 C10            0.1273    -0.6776     1.3848 C.ar    
  11 C11            0.3975    -0.0005     2.7037 C.3     
  12 C12            0.3210    -5.5166     2.7147 C.2     
  13 O13            0.5522    -5.3782     3.9007 O.2     
  14 N14            0.2044    -6.7528     2.1906 N.am    
  15 C15            0.3560    -7.9299     3.0495 C.3     
  16 C16           -0.9641    -8.6744     3.3190 C.3     
  17 N17           -0.6410    -9.4777     2.1191 N.3     
  18 C18            0.8008    -9.1951     2.2939 C.3     
  19 C19           -0.9156   -10.8306     2.3336 C.ar    
  20 C20           -2.0150   -11.2163     3.0966 C.ar    
  21 C21           -2.2457   -12.5699     3.2810 C.ar    
  22 C22           -1.3848   -13.4861     2.7065 C.ar    
  23 N23           -0.3521   -13.0885     1.9890 N.ar    
  24 C24           -0.0993   -11.8114     1.7840 C.ar    
  25 C25           -1.6293   -14.9600     2.9033 C.3     
  26 F26           -2.4524   -15.4372     1.8776 F       
  27 F27           -0.4085   -15.6428     2.8773 F       
  28 F28           -2.2540   -15.1684     4.1376 F       
  29 H29            0.9574     1.9099     0.1311 H       
  30 H30           -0.7272     1.9692    -0.4407 H       
  31 H31           -0.3816     1.8873     1.3035 H       
  32 H32            0.4680    -2.8177     3.3038 H       
  33 H33           -0.5452     0.1749     3.2219 H       
  34 H34            1.0353    -0.6384     3.3156 H       
  35 H35            0.8979     0.9517     2.5275 H       
  36 H36            0.0200    -6.8631     1.2447 H       
  37 H37            0.9389    -7.7278     3.9481 H       
  38 H38           -0.9632    -9.2488     4.2453 H       
  39 H39           -1.8511    -8.0513     3.2045 H       
  40 H40            1.3240    -8.9879     1.3604 H       
  41 H41            1.3179    -9.9218     2.9204 H       
  42 H42           -2.6712   -10.4785     3.5341 H       
  43 H43           -3.0885   -12.9053     3.8672 H       
  44 H44            0.7533   -11.5243     1.1864 H       
@<TRIPOS>BOND
   1    1    2 1
   2    1   29 1
   3    1   30 1
   4    1   31 1
   5    2   10 ar
   6    2    3 ar
   7    3    4 ar
   8    4    5 ar
   9    5    9 ar
  10    5    6 1
  11    6    7 1
  12    7    8 2
  13    7   12 1
  14    8    9 1
  15    8   32 1
  16    9   10 ar
  17   10   11 1
  18   11   33 1
  19   11   34 1
  20   11   35 1
  21   12   13 2
  22   12   14 am
  23   14   15 1
  24   14   36 1
  25   15   18 1
  26   15   16 1
  27   15   37 1
  28   16   17 1
  29   16   38 1
  30   16   39 1
  31   17   18 1
  32   17   19 1
  33   18   40 1
  34   18   41 1
  35   19   24 ar
  36   19   20 ar
  37   20   21 ar
  38   20   42 1
  39   21   22 ar
  40   21   43 1
  41   22   23 ar
  42   22   25 1
  43   23   24 ar
  44   24   44 1
  45   25   26 1
  46   25   27 1
  47   25   28 1

#	End of record

