#	Name: ASD05940028
#	Creating user name:	WinNT
#	Creation time:	15. 06. 2019 21:04

#	Modifying user name:	WinNT
#	Modification time:	15. 06. 2019 21:04

#	Program:	/corina/corina34_cracker 3.40 0067  02.08.2006

@<TRIPOS>MOLECULE
ASD05940028
  59   62    0    0    0
SMALL
NO_CHARGES


@<TRIPOS>ATOM
   1 N1            -0.0159     1.3192     0.0093 N.ar    
   2 C2             0.0021    -0.0041     0.0020 C.ar    
   3 N3             1.1312    -0.6916    -0.0120 N.ar    
   4 C4             2.3077    -0.0674    -0.0199 C.ar    
   5 C5             2.3332     1.3267    -0.0131 C.ar    
   6 C6             1.1160     2.0179     0.0022 C.ar    
   7 N7             3.4850    -0.7937    -0.0341 N.am    
   8 C8             4.6734    -0.1557    -0.0415 C.2     
   9 C9             4.7050     1.3351    -0.0348 C.2     
  10 N10            3.5408     2.0187    -0.0214 N.am    
  11 N11            1.0907     3.4041     0.0099 N.pl3   
  12 O12           -1.1746    -0.6758     0.0096 O.3     
  13 C13            3.4409    -2.2580    -0.0405 C.3     
  14 O14            5.7657     1.9276    -0.0414 O.2     
  15 C15           -2.3692     0.1082     0.0252 C.3     
  16 C16           -3.5870    -0.8179     0.0319 C.3     
  17 C17           -4.8660     0.0216     0.0486 C.3     
  18 C18            3.4127    -2.7534    -1.4635 C.ar    
  19 C19            4.5964    -3.0166    -2.1273 C.ar    
  20 C20            2.2031    -2.9501    -2.1031 C.ar    
  21 C21            2.1773    -3.4045    -3.4084 C.ar    
  22 C22            3.3611    -3.6619    -4.0742 C.ar    
  23 C23            4.5706    -3.4710    -3.4325 C.ar    
  24 C24            3.5641    -3.4524    -7.8063 C.3     
  25 N25            3.3514    -3.0116    -6.4155 N.3     
  26 C26            4.8147    -2.7173    -8.3327 C.3     
  27 C27            4.9074    -1.4772    -7.4052 C.3     
  28 C28            4.4238    -2.0602    -6.0540 C.3     
  29 O29            5.7090    -0.7902    -0.0532 O.2     
  30 C30           -6.0839    -0.9045     0.0552 C.3     
  31 C31            3.3329    -4.1578    -5.4969 C.3     
  32 H32            3.5460     2.9887    -0.0172 H       
  33 H33            1.9218     3.9043     0.0047 H       
  34 H34            0.2420     3.8736     0.0205 H       
  35 H35            4.3242    -2.6503     0.4634 H       
  36 H36            2.5451    -2.5968     0.4799 H       
  37 H37           -2.3825     0.7324     0.9188 H       
  38 H38           -2.3994     0.7419    -0.8611 H       
  39 H39           -3.5737    -1.4420    -0.8616 H       
  40 H40           -3.5567    -1.4516     0.9182 H       
  41 H41           -4.8793     0.6457     0.9421 H       
  42 H42           -4.8963     0.6553    -0.8378 H       
  43 H43            5.5413    -2.8669    -1.6262 H       
  44 H44            1.2783    -2.7490    -1.5829 H       
  45 H45            1.2322    -3.5588    -3.9078 H       
  46 H46            5.4954    -3.6721    -3.9527 H       
  47 H47            3.7285    -4.5296    -7.8329 H       
  48 H48            2.6977    -3.1922    -8.4144 H       
  49 H49            5.7013    -3.3429    -8.2296 H       
  50 H50            4.6748    -2.4132    -9.3700 H       
  51 H51            5.9349    -1.1208    -7.3313 H       
  52 H52            4.2440    -0.6830    -7.7477 H       
  53 H53            4.0294    -1.2675    -5.4182 H       
  54 H54            5.2392    -2.5805    -5.5516 H       
  55 H55           -6.0706    -1.5287    -0.8383 H       
  56 H56           -6.0536    -1.5382     0.9416 H       
  57 H57           -6.9951    -0.3065     0.0671 H       
  58 H58            4.2055    -4.7847    -5.6806 H       
  59 H59            2.4262    -4.7402    -5.6608 H       
@<TRIPOS>BOND
   1    1    2 ar
   2    1    6 ar
   3    2    3 ar
   4    2   12 1
   5    3    4 ar
   6    4    5 ar
   7    4    7 1
   8    5    6 ar
   9    5   10 1
  10    6   11 1
  11    7    8 am
  12    7   13 1
  13    8    9 1
  14    8   29 2
  15    9   10 am
  16    9   14 2
  17   10   32 1
  18   11   33 1
  19   11   34 1
  20   12   15 1
  21   13   18 1
  22   13   35 1
  23   13   36 1
  24   15   16 1
  25   15   37 1
  26   15   38 1
  27   16   17 1
  28   16   39 1
  29   16   40 1
  30   17   30 1
  31   17   41 1
  32   17   42 1
  33   18   19 ar
  34   18   20 ar
  35   19   23 ar
  36   19   43 1
  37   20   21 ar
  38   20   44 1
  39   21   22 ar
  40   21   45 1
  41   22   23 ar
  42   22   31 1
  43   23   46 1
  44   24   25 1
  45   24   26 1
  46   24   47 1
  47   24   48 1
  48   25   28 1
  49   25   31 1
  50   26   27 1
  51   26   49 1
  52   26   50 1
  53   27   28 1
  54   27   51 1
  55   27   52 1
  56   28   53 1
  57   28   54 1
  58   30   55 1
  59   30   56 1
  60   30   57 1
  61   31   58 1
  62   31   59 1

#	End of record

