#	Name: ASD02198280
#	Creating user name:	WinNT
#	Creation time:	15. 06. 2019 20:19

#	Modifying user name:	WinNT
#	Modification time:	15. 06. 2019 20:19

#	Program:	/corina/corina34_cracker 3.40 0067  02.08.2006

@<TRIPOS>MOLECULE
ASD02198280
  44   47    0    0    0
SMALL
NO_CHARGES


@<TRIPOS>ATOM
   1 C1             0.0016     1.4004     0.2379 C.2     
   2 C2             0.0124     0.0162     0.2360 C.2     
   3 S3             1.6711     1.9486     0.1114 S.3     
   4 C4             2.2170     0.3301     0.0687 C.2     
   5 N5             1.2156    -0.4991     0.1441 N.2     
   6 N6            -1.1371    -0.7517     0.3232 N.pl3   
   7 C7            -1.1382     2.2219     0.3199 C.2     
   8 O8            -2.2474     1.7201     0.3987 O.2     
   9 C9            -0.9917     3.6908     0.3106 C.2     
  10 N10            3.5370    -0.0465    -0.0324 N.pl3   
  11 C11            3.8884    -1.3983     0.0627 C.ar    
  12 C12           -1.9961     4.6149     0.3831 C.2     
  13 C13           -1.3145     5.8608     0.3354 C.2     
  14 N14           -0.0386     5.5791     0.2440 N.2     
  15 O15            0.1582     4.3865     0.2350 O.3     
  16 C16           -1.9267     7.2125     0.3797 C.ar    
  17 C17           -1.1204     8.3472     0.3231 C.ar    
  18 C18            4.9928    -1.8793    -0.6284 C.ar    
  19 C19            5.3391    -3.2127    -0.5336 C.ar    
  20 C20            4.5841    -4.0716     0.2516 C.ar    
  21 C21            3.4805    -3.5921     0.9418 C.ar    
  22 C22            3.1362    -2.2578     0.8527 C.ar    
  23 C23           -3.3098     7.3509     0.4723 C.ar    
  24 C24           -3.8738     8.6100     0.5127 C.ar    
  25 C25           -3.0683     9.7332     0.4610 C.ar    
  26 C26           -1.6947     9.6016     0.3642 C.ar    
  27 O27            4.9257    -5.3846     0.3443 O.3     
  28 C28            4.1041    -6.2119     1.1705 C.3     
  29 H29           -2.0039    -0.3214     0.3897 H       
  30 H30           -1.0753    -1.7197     0.3177 H       
  31 H31            4.2237     0.6247    -0.1695 H       
  32 H32           -3.0591     4.4392     0.4583 H       
  33 H33           -0.0478     8.2455     0.2475 H       
  34 H34            5.5805    -1.2108    -1.2400 H       
  35 H35            6.1977    -3.5870    -1.0713 H       
  36 H36            2.8928    -4.2616     1.5523 H       
  37 H37            2.2770    -1.8846     1.3902 H       
  38 H38           -3.9397     6.4745     0.5120 H       
  39 H39           -4.9459     8.7184     0.5844 H       
  40 H40           -3.5137    10.7166     0.4922 H       
  41 H41           -1.0704    10.4819     0.3242 H       
  42 H42            3.0817    -6.2013     0.7928 H       
  43 H43            4.4861    -7.2327     1.1565 H       
  44 H44            4.1179    -5.8328     2.1923 H       
@<TRIPOS>BOND
   1    1    2 2
   2    1    3 1
   3    1    7 1
   4    2    6 1
   5    2    5 1
   6    3    4 1
   7    4    5 2
   8    4   10 1
   9    6   29 1
  10    6   30 1
  11    7    8 2
  12    7    9 1
  13    9   12 2
  14    9   15 1
  15   10   11 1
  16   10   31 1
  17   11   18 ar
  18   11   22 ar
  19   12   13 1
  20   12   32 1
  21   13   14 2
  22   13   16 1
  23   14   15 1
  24   16   17 ar
  25   16   23 ar
  26   17   26 ar
  27   17   33 1
  28   18   19 ar
  29   18   34 1
  30   19   20 ar
  31   19   35 1
  32   20   21 ar
  33   20   27 1
  34   21   22 ar
  35   21   36 1
  36   22   37 1
  37   23   24 ar
  38   23   38 1
  39   24   25 ar
  40   24   39 1
  41   25   26 ar
  42   25   40 1
  43   26   41 1
  44   27   28 1
  45   28   42 1
  46   28   43 1
  47   28   44 1

#	End of record

