#	Name: ASD07931913
#	Creating user name:	WinNT
#	Creation time:	15. 06. 2019 21:13

#	Modifying user name:	WinNT
#	Modification time:	15. 06. 2019 21:13

#	Program:	/corina/corina34_cracker 3.40 0067  02.08.2006

@<TRIPOS>MOLECULE
ASD07931913
  31   30    0    0    0
SMALL
NO_CHARGES


@<TRIPOS>ATOM
   1 C1            -0.0184     1.5028     0.0103 C.2     
   2 C2             0.0021    -0.0041     0.0020 C.3     
   3 O3             1.0197     2.1211     0.0037 O.2     
   4 O4            -1.1898     2.1580     0.0194 O.3     
   5 O5             1.3556    -0.4620    -0.0134 O.3     
   6 C6             1.5487    -2.4004     1.4170 C.3     
   7 C7             1.4878    -1.8849    -0.0223 C.3     
   8 C8             2.7526    -2.2674    -0.7468 C.2     
   9 C9             2.6924    -3.0227    -1.8155 C.2     
  10 F10            0.3745    -2.0453     2.0896 F       
  11 F11            1.6781    -3.7934     1.4082 F       
  12 F12            2.6492    -1.8339     2.0690 F       
  13 C13           -1.1335     3.6089     0.0270 C.3     
  14 C14           -0.3989     4.0974    -1.2231 C.3     
  15 C15           -2.5551     4.1744     0.0369 C.3     
  16 C16           -0.3871     4.0838     1.2754 C.3     
  17 H17           -0.4983    -0.3791     0.8948 H       
  18 H18           -0.5153    -0.3696    -0.8850 H       
  19 H19            0.6303    -2.3262    -0.5303 H       
  20 H20            3.7086    -1.9188    -0.3851 H       
  21 H21            1.7363    -3.3712    -2.1772 H       
  22 H22            3.5988    -3.2968    -2.3348 H       
  23 H23           -0.9307     3.7591    -2.1124 H       
  24 H24           -0.3567     5.1865    -1.2173 H       
  25 H25            0.6139     3.6945    -1.2301 H       
  26 H26           -3.0784     3.8265     0.9275 H       
  27 H27           -2.5128     5.2636     0.0426 H       
  28 H28           -3.0869     3.8361    -0.8525 H       
  29 H29            0.6257     3.6809     1.2684 H       
  30 H30           -0.3448     5.1730     1.2811 H       
  31 H31           -0.9104     3.7358     2.1659 H       
@<TRIPOS>BOND
   1    1    2 1
   2    1    3 2
   3    1    4 1
   4    2    5 1
   5    2   17 1
   6    2   18 1
   7    4   13 1
   8    5    7 1
   9    6    7 1
  10    6   10 1
  11    6   11 1
  12    6   12 1
  13    7    8 1
  14    7   19 1
  15    8    9 2
  16    8   20 1
  17    9   21 1
  18    9   22 1
  19   13   14 1
  20   13   16 1
  21   13   15 1
  22   14   23 1
  23   14   24 1
  24   14   25 1
  25   15   26 1
  26   15   27 1
  27   15   28 1
  28   16   29 1
  29   16   30 1
  30   16   31 1

#	End of record

