#	Name: ASD08170594
#	Creating user name:	WinNT
#	Creation time:	15. 06. 2019 21:17

#	Modifying user name:	WinNT
#	Modification time:	15. 06. 2019 21:17

#	Program:	/corina/corina34_cracker 3.40 0067  02.08.2006

@<TRIPOS>MOLECULE
ASD08170594
  54   57    0    0    0
SMALL
NO_CHARGES


@<TRIPOS>ATOM
   1 C1            -0.0184     1.5028     0.0103 C.3     
   2 C2             0.0021    -0.0041     0.0020 C.2     
   3 N3             0.5145    -0.6768     1.0514 N.am    
   4 C4             0.5334    -2.0674     1.0438 C.2     
   5 S5             1.1472    -3.0646     2.2942 S.3     
   6 C6             0.7151    -4.4871     1.3447 C.2     
   7 C7             0.9297    -5.9233     1.7474 C.3     
   8 C8             2.3037    -6.3894     1.2616 C.3     
   9 C9             3.8955    -8.3136     1.1846 C.3     
  10 C10            4.1101    -9.7499     1.5873 C.2     
  11 S11            4.8384   -10.3106     3.0929 S.3     
  12 C12            4.6159   -11.9284     2.5754 C.2     
  13 N13            4.9749   -13.0652     3.2915 N.am    
  14 C14            4.7462   -14.2882     2.7734 C.2     
  15 C15            5.1353   -15.5201     3.5494 C.3     
  16 N16            0.0834    -2.8255     0.0898 N.2     
  17 N17            0.1799    -4.0753     0.2394 N.2     
  18 N18            3.7877   -10.7944     0.8926 N.2     
  19 N19            4.0556   -11.9173     1.4036 N.2     
  20 O20            4.2272   -14.3974     1.6827 O.2     
  21 O21           -0.4426    -0.6114    -0.9490 O.2     
  22 C22            2.5215    -7.8475     1.6704 C.3     
  23 C23            4.2489   -15.6624     4.8124 C.3     
  24 C24            1.4235     2.0464    -0.0005 C.3     
  25 C25            1.4901     2.9200    -1.2769 C.3     
  26 C26           -0.0071     3.2196    -1.5438 C.3     
  27 O27           -0.6674     1.9893    -1.1764 O.3     
  28 O28            4.8753   -16.7008     2.7738 O.3     
  29 C29            4.4153   -17.7553     3.6271 C.3     
  30 C30            4.3357   -17.1927     5.0625 C.3     
  31 H31           -0.5430     1.8613     0.8959 H       
  32 H32            0.8702    -0.1912     1.8120 H       
  33 H33            0.8804    -6.0075     2.8330 H       
  34 H34            0.1554    -6.5459     1.2991 H       
  35 H35            2.3530    -6.3052     0.1760 H       
  36 H36            3.0780    -5.7668     1.7099 H       
  37 H37            4.6698    -7.6910     1.6329 H       
  38 H38            3.9448    -8.2294     0.0990 H       
  39 H39            5.3900   -12.9779     4.1639 H       
  40 H40            6.1882   -15.4744     3.8276 H       
  41 H41            2.4722    -7.9318     2.7561 H       
  42 H42            1.7472    -8.4701     1.2222 H       
  43 H43            4.6658   -15.1032     5.6500 H       
  44 H44            3.2231   -15.3551     4.6090 H       
  45 H45            1.6096     2.6521     0.8864 H       
  46 H46            2.1398     1.2270    -0.0613 H       
  47 H47            2.0436     3.8402    -1.0900 H       
  48 H48            1.9294     2.3649    -2.1057 H       
  49 H49           -0.3516     4.0421    -0.9170 H       
  50 H50           -0.1717     3.4437    -2.5977 H       
  51 H51            3.4285   -18.0878     3.3050 H       
  52 H52            5.1165   -18.5893     3.5951 H       
  53 H53            5.2335   -17.4431     5.6277 H       
  54 H54            3.4421   -17.5538     5.5717 H       
@<TRIPOS>BOND
   1    1    2 1
   2    1   24 1
   3    1   27 1
   4    1   31 1
   5    2    3 am
   6    2   21 2
   7    3    4 1
   8    3   32 1
   9    4    5 1
  10    4   16 2
  11    5    6 1
  12    6    7 1
  13    6   17 2
  14    7    8 1
  15    7   33 1
  16    7   34 1
  17    8   22 1
  18    8   35 1
  19    8   36 1
  20    9   10 1
  21    9   22 1
  22    9   37 1
  23    9   38 1
  24   10   11 1
  25   10   18 2
  26   11   12 1
  27   12   13 1
  28   12   19 2
  29   13   14 am
  30   13   39 1
  31   14   15 1
  32   14   20 2
  33   15   28 1
  34   15   23 1
  35   15   40 1
  36   16   17 1
  37   18   19 1
  38   22   41 1
  39   22   42 1
  40   23   30 1
  41   23   43 1
  42   23   44 1
  43   24   25 1
  44   24   45 1
  45   24   46 1
  46   25   26 1
  47   25   47 1
  48   25   48 1
  49   26   27 1
  50   26   49 1
  51   26   50 1
  52   28   29 1
  53   29   30 1
  54   29   51 1
  55   29   52 1
  56   30   53 1
  57   30   54 1

#	End of record

