#	Name: ASD08830177
#	Creating user name:	WinNT
#	Creation time:	15. 06. 2019 21:19

#	Modifying user name:	WinNT
#	Modification time:	15. 06. 2019 21:19

#	Program:	/corina/corina34_cracker 3.40 0067  02.08.2006

@<TRIPOS>MOLECULE
ASD08830177
  42   45    0    0    0
SMALL
NO_CHARGES


@<TRIPOS>ATOM
   1 C1            -0.0179     1.4661     0.0101 C.ar    
   2 C2             0.0021    -0.0041     0.0020 C.2     
   3 C3            -1.2926    -0.7753     0.0102 C.3     
   4 C4            -0.9927    -2.2755    -0.0007 C.3     
   5 N5            -2.2547    -3.0273     0.0073 N.3     
   6 O6             1.0604    -0.5961    -0.0113 O.2     
   7 C7             1.1790     2.1735     0.0025 C.ar    
   8 C8             1.1523     3.5732     0.0102 C.ar    
   9 C9            -0.0949     4.2440     0.0257 C.ar    
  10 C10           -1.2862     3.5079     0.0327 C.ar    
  11 C11           -1.2480     2.1487     0.0197 C.ar    
  12 C12            2.3487     4.3226     0.0024 C.ar    
  13 C13            2.3269     5.6756     0.0098 C.ar    
  14 C14            1.1201     6.3903     0.0251 C.ar    
  15 C15           -0.1042     5.7055     0.0336 C.ar    
  16 C16           -2.0181    -4.4568    -0.2410 C.3     
  17 C17           -3.3490    -5.2097    -0.1649 C.3     
  18 O18           -4.2665    -4.6418    -1.1035 O.3     
  19 C19           -4.5205    -3.2506    -0.8906 C.3     
  20 C20           -3.2015    -2.4779    -0.9741 C.3     
  21 N21            0.8194     7.7251     0.0347 N.pl3   
  22 N22           -0.5743     7.8580     0.0484 N.2     
  23 C23           -1.1251     6.6762     0.0480 C.2     
  24 H24           -1.8592    -0.5245     0.9070 H       
  25 H25           -1.8762    -0.5150    -0.8728 H       
  26 H26           -0.4261    -2.5263    -0.8975 H       
  27 H27           -0.4091    -2.5358     0.8824 H       
  28 H28            2.1221     1.6473    -0.0090 H       
  29 H29           -2.2367     4.0205     0.0449 H       
  30 H30           -2.1709     1.5878     0.0248 H       
  31 H31            3.2978     3.8072    -0.0094 H       
  32 H32            3.2608     6.2180     0.0042 H       
  33 H33           -1.5824    -4.5869    -1.2316 H       
  34 H34           -1.3346    -4.8488     0.5123 H       
  35 H35           -3.1869    -6.2606    -0.4046 H       
  36 H36           -3.7584    -5.1242     0.8417 H       
  37 H37           -5.2057    -2.8846    -1.6552 H       
  38 H38           -4.9640    -3.1082     0.0948 H       
  39 H39           -3.3819    -1.4252    -0.7560 H       
  40 H40           -2.7847    -2.5763    -1.9764 H       
  41 H41            1.4606     8.4530     0.0328 H       
  42 H42           -2.1862     6.4751     0.0571 H       
@<TRIPOS>BOND
   1    1    2 1
   2    1    7 ar
   3    1   11 ar
   4    2    3 1
   5    2    6 2
   6    3    4 1
   7    3   24 1
   8    3   25 1
   9    4    5 1
  10    4   26 1
  11    4   27 1
  12    5   16 1
  13    5   20 1
  14    7    8 ar
  15    7   28 1
  16    8    9 ar
  17    8   12 ar
  18    9   10 ar
  19    9   15 ar
  20   10   11 ar
  21   10   29 1
  22   11   30 1
  23   12   13 ar
  24   12   31 1
  25   13   14 ar
  26   13   32 1
  27   14   15 ar
  28   14   21 1
  29   15   23 1
  30   16   17 1
  31   16   33 1
  32   16   34 1
  33   17   18 1
  34   17   35 1
  35   17   36 1
  36   18   19 1
  37   19   20 1
  38   19   37 1
  39   19   38 1
  40   20   39 1
  41   20   40 1
  42   21   22 1
  43   21   41 1
  44   22   23 2
  45   23   42 1

#	End of record

