#	Name: ASD05730075
#	Creating user name:	WinNT
#	Creation time:	15. 06. 2019 21:02

#	Modifying user name:	WinNT
#	Modification time:	15. 06. 2019 21:02

#	Program:	/corina/corina34_cracker 3.40 0067  02.08.2006

@<TRIPOS>MOLECULE
ASD05730075
  75   80    0    0    0
SMALL
NO_CHARGES


@<TRIPOS>ATOM
   1 O1             0.3039     1.3045     1.5064 O.3     
   2 C2             0.2704    -0.0148     1.1784 C.ar    
   3 C3            -0.7028    -0.4888     0.3109 C.ar    
   4 C4            -0.7372    -1.8283    -0.0231 C.ar    
   5 C5             0.2027    -2.7008     0.5097 C.ar    
   6 C6             1.1765    -2.2254     1.3780 C.ar    
   7 C7             1.2128    -0.8847     1.7068 C.ar    
   8 N8             0.1681    -4.0592     0.1719 N.pl3   
   9 C9             1.3459    -4.7472    -0.0436 C.ar    
  10 N10            1.2923    -6.0543    -0.2499 N.ar    
  11 C11            2.4036    -6.7506    -0.4613 C.ar    
  12 C12            3.6403    -6.0691    -0.4612 C.ar    
  13 C13            3.6437    -4.6836    -0.2377 C.ar    
  14 N14            2.4906    -4.0726    -0.0415 N.ar    
  15 N15            2.3554    -8.1046    -0.6752 N.am    
  16 C16            3.4823    -8.8101    -0.8890 C.2     
  17 C17            4.7844    -8.1394    -0.8965 C.2     
  18 C18            4.8427    -6.7771    -0.6830 C.2     
  19 C19            1.0617    -8.7920    -0.6706 C.3     
  20 C20            0.4848    -8.8026    -2.0877 C.3     
  21 O21            3.4186   -10.0119    -1.0766 O.2     
  22 C22            6.0240    -8.9141    -1.1310 C.ar    
  23 C23           -0.6260     2.1621     0.8418 C.3     
  24 N24            6.3597    -9.8888    -0.2944 N.ar    
  25 C25           -1.9663     2.1322     1.5799 C.3     
  26 N26           -2.9159     3.0296     0.9095 N.3     
  27 C27           -2.4398     4.4186     0.9313 C.3     
  28 C28           -1.1137     4.5167     0.1738 C.3     
  29 C29           -0.0850     3.5945     0.8340 C.3     
  30 C30            7.9821    -9.3510    -2.4383 C.ar    
  31 C31            8.2982   -10.3576    -1.5357 C.ar    
  32 C32            7.4544   -10.6016    -0.4685 C.ar    
  33 C33            6.8273    -8.6180    -2.2325 C.ar    
  34 C34            6.4420    -7.5155    -3.1849 C.3     
  35 S35            9.7580   -11.3202    -1.7529 S.o2    
  36 O36           10.0856   -11.2463    -3.1337 O.2     
  37 C37           11.0566   -10.5006    -0.8889 C.ar    
  38 O38            9.5347   -12.5471    -1.0718 O.2     
  39 C39           11.3021   -10.8022     0.4376 C.ar    
  40 C40           11.8335    -9.5601    -1.5392 C.ar    
  41 C41           12.8523    -8.9171    -0.8613 C.ar    
  42 C42           13.0939    -9.2143     0.4669 C.ar    
  43 C43           12.3209   -10.1591     1.1155 C.ar    
  44 H44           -1.4339     0.1897    -0.1031 H       
  45 H45           -1.4952    -2.1973    -0.6982 H       
  46 H46            1.9078    -2.9033     1.7928 H       
  47 H47            1.9704    -0.5147     2.3818 H       
  48 H48           -0.6831    -4.5169     0.0892 H       
  49 H49            4.5702    -4.1286    -0.2301 H       
  50 H50            5.7915    -6.2612    -0.6845 H       
  51 H51            1.1961    -9.8171    -0.3254 H       
  52 H52            0.3756    -8.2708    -0.0030 H       
  53 H53           -0.4778    -9.3140    -2.0843 H       
  54 H54            0.3503    -7.7775    -2.4329 H       
  55 H55            1.1708    -9.3238    -2.7554 H       
  56 H56           -0.7676     1.8204    -0.1836 H       
  57 H57           -2.3611     1.1163     1.5748 H       
  58 H58           -1.8214     2.4603     2.6092 H       
  59 H59           -3.0968     2.7242    -0.0350 H       
  60 H60           -3.1786     5.0632     0.4552 H       
  61 H61           -2.2927     4.7359     1.9637 H       
  62 H62           -1.2631     4.2127    -0.8622 H       
  63 H63           -0.7528     5.5448     0.2036 H       
  64 H64            0.0935     3.9220     1.8582 H       
  65 H65            0.8483     3.6283     0.2718 H       
  66 H66            8.6259    -9.1419    -3.2798 H       
  67 H67            7.6957   -11.3869     0.2325 H       
  68 H68            6.7902    -6.5594    -2.7940 H       
  69 H69            6.8995    -7.6988    -4.1571 H       
  70 H70            5.3576    -7.4908    -3.2925 H       
  71 H71           10.6978   -11.5399     0.9445 H       
  72 H72           11.6447    -9.3280    -2.5769 H       
  73 H73           13.4597    -8.1829    -1.3696 H       
  74 H74           13.8901    -8.7122     0.9964 H       
  75 H75           12.5097   -10.3913     2.1532 H       
@<TRIPOS>BOND
   1    1    2 1
   2    1   23 1
   3    2    3 ar
   4    2    7 ar
   5    3    4 ar
   6    3   44 1
   7    4    5 ar
   8    4   45 1
   9    5    6 ar
  10    5    8 1
  11    6    7 ar
  12    6   46 1
  13    7   47 1
  14    8    9 1
  15    8   48 1
  16    9   10 ar
  17    9   14 ar
  18   10   11 ar
  19   11   12 ar
  20   11   15 1
  21   12   13 ar
  22   12   18 1
  23   13   14 ar
  24   13   49 1
  25   15   16 am
  26   15   19 1
  27   16   17 1
  28   16   21 2
  29   17   18 2
  30   17   22 1
  31   18   50 1
  32   19   20 1
  33   19   51 1
  34   19   52 1
  35   20   53 1
  36   20   54 1
  37   20   55 1
  38   22   33 ar
  39   22   24 ar
  40   23   25 1
  41   23   29 1
  42   23   56 1
  43   24   32 ar
  44   25   26 1
  45   25   57 1
  46   25   58 1
  47   26   27 1
  48   26   59 1
  49   27   28 1
  50   27   60 1
  51   27   61 1
  52   28   29 1
  53   28   62 1
  54   28   63 1
  55   29   64 1
  56   29   65 1
  57   30   31 ar
  58   30   33 ar
  59   30   66 1
  60   31   32 ar
  61   31   35 1
  62   32   67 1
  63   33   34 1
  64   34   68 1
  65   34   69 1
  66   34   70 1
  67   35   36 2
  68   35   37 1
  69   35   38 2
  70   37   39 ar
  71   37   40 ar
  72   39   43 ar
  73   39   71 1
  74   40   41 ar
  75   40   72 1
  76   41   42 ar
  77   41   73 1
  78   42   43 ar
  79   42   74 1
  80   43   75 1

#	End of record

