#	Name: ASD09790006
#	Creating user name:	WinNT
#	Creation time:	15. 06. 2019 21:23

#	Modifying user name:	WinNT
#	Modification time:	15. 06. 2019 21:23

#	Program:	/corina/corina34_cracker 3.40 0067  02.08.2006

@<TRIPOS>MOLECULE
ASD09790006
  41   44    0    0    0
SMALL
NO_CHARGES


@<TRIPOS>ATOM
   1 C1            -0.2521     2.0999    -0.5351 C.2     
   2 C2            -0.4495     0.6643    -0.2362 C.ar    
   3 C3             0.5886    -0.0350     0.3989 C.ar    
   4 O4             1.7376     0.5822     0.7396 O.3     
   5 C5             2.0797     1.7836     0.2321 C.ar    
   6 C6             1.1291     2.5988    -0.4079 C.ar    
   7 C7            -1.6346     0.0161    -0.5762 C.ar    
   8 C8            -1.7839    -1.3240    -0.2885 C.ar    
   9 C9            -0.7596    -2.0199     0.3350 C.ar    
  10 C10            0.4165    -1.3872     0.6775 C.ar    
  11 C11            1.4927     3.8532    -0.9138 C.ar    
  12 C12            3.3885     2.2326     0.3380 C.ar    
  13 C13            3.7448     3.4719    -0.1715 C.ar    
  14 C14            2.8024     4.2822    -0.7942 C.ar    
  15 O15           -1.1725     2.8231    -0.8703 O.2     
  16 O16            0.5676     4.6413    -1.5170 O.3     
  17 O17            5.0289     3.8984    -0.0619 O.3     
  18 C18            5.3101     4.8273     0.8757 C.2     
  19 C19            6.6528     5.4000     0.9577 C.2     
  20 O20            4.4466     5.1881     1.6525 O.2     
  21 C21            6.9340     6.3288     1.8952 C.2     
  22 C22            8.2856     6.9054     1.9777 C.ar    
  23 C23            9.2797     6.4973     1.0826 C.ar    
  24 C24            8.5810     7.8683     2.9481 C.ar    
  25 C25            9.8497     8.4036     3.0190 C.ar    
  26 C26           10.8294     7.9908     2.1329 C.ar    
  27 C27           10.5435     7.0422     1.1664 C.ar    
  28 H28           -2.4315     0.5598    -1.0617 H       
  29 H29           -2.7005    -1.8325    -0.5489 H       
  30 H30           -0.8845    -3.0698     0.5550 H       
  31 H31            1.2057    -1.9423     1.1627 H       
  32 H32            4.1320     1.6147     0.8193 H       
  33 H33            3.0925     5.2469    -1.1836 H       
  34 H34            0.1068     5.2397    -0.9132 H       
  35 H35            7.4196     5.0797     0.2678 H       
  36 H36            6.1673     6.6492     2.5850 H       
  37 H37            9.0581     5.7572     0.3279 H       
  38 H38            7.8173     8.1919     3.6398 H       
  39 H39           10.0793     9.1473     3.7677 H       
  40 H40           11.8211     8.4143     2.1930 H       
  41 H41           11.3123     6.7281     0.4759 H       
@<TRIPOS>BOND
   1    1    2 1
   2    1    6 1
   3    1   15 2
   4    2    3 ar
   5    2    7 ar
   6    3    4 1
   7    3   10 ar
   8    4    5 1
   9    5   12 ar
  10    5    6 ar
  11    6   11 ar
  12    7    8 ar
  13    7   28 1
  14    8    9 ar
  15    8   29 1
  16    9   10 ar
  17    9   30 1
  18   10   31 1
  19   11   14 ar
  20   11   16 1
  21   12   13 ar
  22   12   32 1
  23   13   14 ar
  24   13   17 1
  25   14   33 1
  26   16   34 1
  27   17   18 1
  28   18   19 1
  29   18   20 2
  30   19   21 2
  31   19   35 1
  32   21   22 1
  33   21   36 1
  34   22   24 ar
  35   22   23 ar
  36   23   27 ar
  37   23   37 1
  38   24   25 ar
  39   24   38 1
  40   25   26 ar
  41   25   39 1
  42   26   27 ar
  43   26   40 1
  44   27   41 1

#	End of record

