#	Name: ASD01151059
#	Creating user name:	WinNT
#	Creation time:	15. 06. 2019 19:05

#	Modifying user name:	WinNT
#	Modification time:	15. 06. 2019 19:05

#	Program:	/corina/corina34_cracker 3.40 0067  02.08.2006

@<TRIPOS>MOLECULE
ASD01151059
  55   57    0    0    0
SMALL
NO_CHARGES


@<TRIPOS>ATOM
   1 O1            -0.7336     0.5586    -0.8705 O.2     
   2 C2            -1.1162     1.5665    -0.3087 C.2     
   3 C3            -0.1363     2.5677     0.1614 C.ar    
   4 C4            -0.5726     3.7252     0.8063 C.ar    
   5 C5             0.3526     4.6595     1.2448 C.ar    
   6 C6             1.7103     4.4422     1.0417 C.ar    
   7 C7             2.1438     3.2960     0.4024 C.ar    
   8 C8             1.2310     2.3558    -0.0334 C.ar    
   9 Br9            1.8304     0.7894    -0.9069 Br      
  10 N10           -0.0803     5.8221     1.8918 N.am    
  11 C11           -1.1482     5.7785     2.7129 C.2     
  12 O12           -1.7808     4.7474     2.8331 O.2     
  13 C13           -1.5503     6.9844     3.4672 C.ar    
  14 C14           -2.6558     6.9427     4.3184 C.ar    
  15 C15           -3.0254     8.0716     5.0199 C.ar    
  16 C16           -2.3029     9.2434     4.8811 C.ar    
  17 C17           -1.2064     9.2918     4.0387 C.ar    
  18 C18           -0.8226     8.1684     3.3358 C.ar    
  19 N19           -2.4345     1.7734    -0.1195 N.am    
  20 C20           -3.3664     0.8755    -0.6496 C.ar    
  21 C21           -4.3617     1.3296    -1.5053 C.ar    
  22 C22           -4.4390     2.7913    -1.8640 C.3     
  23 C23           -5.2801     0.4401    -2.0275 C.ar    
  24 C24           -5.2096    -0.9013    -1.6993 C.ar    
  25 C25           -4.2201    -1.3567    -0.8472 C.ar    
  26 C26           -3.2951    -0.4734    -0.3261 C.ar    
  27 C27           -2.2173    -0.9705     0.6024 C.3     
  28 C28           -6.2134    -1.8691    -2.2710 C.3     
  29 C29           -5.8963    -2.1205    -3.7465 C.3     
  30 F30           -4.6338    -2.7129    -3.8577 F       
  31 F31           -6.8615    -2.9737    -4.2920 F       
  32 F32           -5.9037    -0.9049    -4.4388 F       
  33 C33           -6.1436    -3.1899    -1.5020 C.3     
  34 F34           -6.2944    -2.9414    -0.1335 F       
  35 F35           -7.1677    -4.0378    -1.9376 F       
  36 F36           -4.9050    -3.7984    -1.7318 F       
  37 F37           -7.4991    -1.3297    -2.1556 F       
  38 H38           -1.6279     3.8929     0.9632 H       
  39 H39            2.4292     5.1717     1.3843 H       
  40 H40            3.2001     3.1331     0.2473 H       
  41 H41            0.3881     6.6595     1.7494 H       
  42 H42           -3.2208     6.0287     4.4273 H       
  43 H43           -3.8807     8.0407     5.6785 H       
  44 H44           -2.5965    10.1244     5.4325 H       
  45 H45           -0.6472    10.2098     3.9343 H       
  46 H46            0.0337     8.2073     2.6789 H       
  47 H47           -2.7370     2.5451     0.3844 H       
  48 H48           -3.8407     2.9788    -2.7556 H       
  49 H49           -5.4765     3.0632    -2.0588 H       
  50 H50           -4.0559     3.3891    -1.0370 H       
  51 H51           -6.0545     0.7927    -2.6927 H       
  52 H52           -4.1680    -2.4049    -0.5926 H       
  53 H53           -1.3927    -1.3773     0.0170 H       
  54 H54           -1.8555    -0.1443     1.2144 H       
  55 H55           -2.6240    -1.7494     1.2473 H       
@<TRIPOS>BOND
   1    1    2 2
   2    2    3 1
   3    2   19 am
   4    3    4 ar
   5    3    8 ar
   6    4    5 ar
   7    4   38 1
   8    5    6 ar
   9    5   10 1
  10    6    7 ar
  11    6   39 1
  12    7    8 ar
  13    7   40 1
  14    8    9 1
  15   10   11 am
  16   10   41 1
  17   11   12 2
  18   11   13 1
  19   13   14 ar
  20   13   18 ar
  21   14   15 ar
  22   14   42 1
  23   15   16 ar
  24   15   43 1
  25   16   17 ar
  26   16   44 1
  27   17   18 ar
  28   17   45 1
  29   18   46 1
  30   19   20 1
  31   19   47 1
  32   20   21 ar
  33   20   26 ar
  34   21   22 1
  35   21   23 ar
  36   22   48 1
  37   22   49 1
  38   22   50 1
  39   23   24 ar
  40   23   51 1
  41   24   25 ar
  42   24   28 1
  43   25   26 ar
  44   25   52 1
  45   26   27 1
  46   27   53 1
  47   27   54 1
  48   27   55 1
  49   28   29 1
  50   28   33 1
  51   28   37 1
  52   29   30 1
  53   29   31 1
  54   29   32 1
  55   33   34 1
  56   33   35 1
  57   33   36 1

#	End of record

