#	Name: ASD07930333
#	Creating user name:	WinNT
#	Creation time:	15. 06. 2019 21:12

#	Modifying user name:	WinNT
#	Modification time:	15. 06. 2019 21:12

#	Program:	/corina/corina34_cracker 3.40 0067  02.08.2006

@<TRIPOS>MOLECULE
ASD07930333
  47   48    0    0    0
SMALL
NO_CHARGES


@<TRIPOS>ATOM
   1 N1            -0.0057     1.4467     0.2172 N.pl3   
   2 C2             0.0021    -0.0041     0.0020 C.3     
   3 C3             0.8305    -0.6735     1.1079 C.3     
   4 S4             2.4899     0.0761     1.1074 S.o2    
   5 N5             2.1539     1.7082     1.1105 N.am    
   6 C6             1.1735     2.1401     0.2466 C.2     
   7 C7            -1.4106    -0.5271     0.0446 C.ar    
   8 C8            -2.1696    -0.3778     1.1926 C.ar    
   9 C9            -3.4678    -0.8579     1.2316 C.ar    
  10 C10           -4.0058    -1.4856     0.1246 C.ar    
  11 C11           -3.2466    -1.6349    -1.0238 C.ar    
  12 C12           -1.9504    -1.1506    -1.0644 C.ar    
  13 C13            2.8668     2.6378     1.9902 C.3     
  14 F14           -1.6436     0.2359     2.2751 F       
  15 O15            3.1486    -0.1559     2.3449 O.2     
  16 O16            3.1459    -0.1516    -0.1324 O.2     
  17 C17            0.6229    -0.3153    -1.3613 C.3     
  18 F18           -3.7724    -2.2490    -2.1062 F       
  19 N19            1.3652     3.1940    -0.5315 N.2     
  20 O20            0.5929     4.6704    -2.1572 O.3     
  21 C21           -0.4826     5.0433    -3.0210 C.3     
  22 C22           -1.7199     5.3709    -2.1828 C.3     
  23 C23           -0.0788     6.2733    -3.8365 C.3     
  24 C24           -0.8007     3.8850    -3.9687 C.3     
  25 C25            0.3975     3.5961    -1.3641 C.2     
  26 O26           -0.6590     2.9928    -1.4059 O.2     
  27 H27           -0.8470     1.9152     0.3347 H       
  28 H28            0.3537    -0.5106     2.0744 H       
  29 H29            0.9099    -1.7428     0.9118 H       
  30 H30           -4.0597    -0.7421     2.1275 H       
  31 H31           -5.0183    -1.8601     0.1550 H       
  32 H32           -1.3583    -1.2668    -1.9602 H       
  33 H33            3.7521     3.0156     1.4786 H       
  34 H34            2.2119     3.4706     2.2460 H       
  35 H35            3.1670     2.1187     2.9005 H       
  36 H36            1.6454     0.0612    -1.3894 H       
  37 H37            0.6283    -1.3936    -1.5204 H       
  38 H38            0.0372     0.1647    -2.1453 H       
  39 H39           -1.4933     6.1960    -1.5076 H       
  40 H40           -2.5403     5.6553    -2.8416 H       
  41 H41           -2.0076     4.4946    -1.6018 H       
  42 H42            0.8026     6.0399    -4.4337 H       
  43 H43           -0.8992     6.5577    -4.4954 H       
  44 H44            0.1478     7.0984    -3.1613 H       
  45 H45           -1.0884     3.0087    -3.3878 H       
  46 H46           -1.6211     4.1695    -4.6276 H       
  47 H47            0.0807     3.6516    -4.5659 H       
@<TRIPOS>BOND
   1    1    2 1
   2    1    6 1
   3    1   27 1
   4    2    3 1
   5    2    7 1
   6    2   17 1
   7    3    4 1
   8    3   28 1
   9    3   29 1
  10    4    5 am
  11    4   15 2
  12    4   16 2
  13    5    6 1
  14    5   13 1
  15    6   19 2
  16    7    8 ar
  17    7   12 ar
  18    8    9 ar
  19    8   14 1
  20    9   10 ar
  21    9   30 1
  22   10   11 ar
  23   10   31 1
  24   11   12 ar
  25   11   18 1
  26   12   32 1
  27   13   33 1
  28   13   34 1
  29   13   35 1
  30   17   36 1
  31   17   37 1
  32   17   38 1
  33   19   25 1
  34   20   21 1
  35   20   25 1
  36   21   22 1
  37   21   23 1
  38   21   24 1
  39   22   39 1
  40   22   40 1
  41   22   41 1
  42   23   42 1
  43   23   43 1
  44   23   44 1
  45   24   45 1
  46   24   46 1
  47   24   47 1
  48   25   26 2

#	End of record

