#	Name: ASD08170124
#	Creating user name:	WinNT
#	Creation time:	15. 06. 2019 21:17

#	Modifying user name:	WinNT
#	Modification time:	15. 06. 2019 21:17

#	Program:	/corina/corina34_cracker 3.40 0067  02.08.2006

@<TRIPOS>MOLECULE
ASD08170124
  63   66    0    0    0
SMALL
NO_CHARGES


@<TRIPOS>ATOM
   1 C1            -0.0184     1.5028     0.0103 C.3     
   2 C2             1.4170     2.0324    -0.0006 C.3     
   3 C3             1.3963     3.5622     0.0079 C.3     
   4 C4             2.8101     4.0838    -0.0028 C.2     
   5 C5             0.0021    -0.0041     0.0020 C.2     
   6 S6             3.7998     4.4363     1.4141 S.3     
   7 C7             5.0773     4.9160     0.3785 C.2     
   8 N8             4.6870     4.7829    -0.8532 N.2     
   9 N9             3.5188     4.3485    -1.0542 N.2     
  10 S10            0.0026    -1.0367    -1.4281 S.3     
  11 N11            0.0281    -0.7735     1.0436 N.2     
  12 N12            0.0423    -2.0172     0.8270 N.2     
  13 C13            0.0316    -2.4140    -0.4097 C.2     
  14 N14            0.0439    -3.7376    -0.8365 N.am    
  15 C15            0.0694    -4.7369     0.0675 C.2     
  16 O16            0.0817    -4.4819     1.2531 O.2     
  17 N17            6.3252     5.3728     0.7886 N.am    
  18 C18            7.2498     5.7214    -0.1279 C.2     
  19 C19            8.6020     6.2164     0.3164 C.3     
  20 O20            6.9935     5.6368    -1.3104 O.2     
  21 C21            0.0826    -6.1711    -0.3950 C.3     
  22 C22            9.3449     5.0909     1.0391 C.3     
  23 C23            1.3840    -6.4519    -1.1490 C.3     
  24 C24           10.6441     5.6195     1.5903 C.ar    
  25 C25           10.6879     6.1534     2.8646 C.ar    
  26 C26            0.8349    -8.0640    -2.9833 C.ar    
  27 C27            1.3446    -7.8473    -1.7168 C.ar    
  28 C28            0.7988    -9.3440    -3.5041 C.ar    
  29 C29            1.2724   -10.4072    -2.7583 C.ar    
  30 C30            1.7825   -10.1904    -1.4920 C.ar    
  31 C31            1.8186    -8.9104    -0.9712 C.ar    
  32 C32           11.7931     5.5652     0.8238 C.ar    
  33 C33           12.9848     6.0500     1.3294 C.ar    
  34 C34           13.0274     6.5895     2.6014 C.ar    
  35 C35           11.8796     6.6383     3.3702 C.ar    
  36 O36           -0.0080    -7.0377     0.7377 O.3     
  37 O37            9.3567     6.6294    -0.8246 O.3     
  38 H38           -0.5286     1.8543     0.9071 H       
  39 H39           -0.5455     1.8639    -0.8728 H       
  40 H40            1.9442     1.6713     0.8825 H       
  41 H41            1.9272     1.6808    -0.8974 H       
  42 H42            0.8691     3.9233    -0.8752 H       
  43 H43            0.8861     3.9137     0.9047 H       
  44 H44            0.0340    -3.9415    -1.7848 H       
  45 H45            6.5302     5.4405     1.7343 H       
  46 H46            8.4752     7.0613     0.9934 H       
  47 H47           -0.7657    -6.3475    -1.0562 H       
  48 H48            8.7293     4.7156     1.8566 H       
  49 H49            9.5501     4.2821     0.3378 H       
  50 H50            1.4963    -5.7326    -1.9603 H       
  51 H51            2.2273    -6.3618    -0.4643 H       
  52 H52            9.7910     6.1921     3.4651 H       
  53 H53            0.4607    -7.2340    -3.5641 H       
  54 H54            0.4002    -9.5134    -4.4934 H       
  55 H55            1.2435   -11.4074    -3.1649 H       
  56 H56            2.1525   -11.0211    -0.9093 H       
  57 H57            2.2169    -8.7411     0.0183 H       
  58 H58           11.7599     5.1437    -0.1700 H       
  59 H59           13.8827     6.0070     0.7308 H       
  60 H60           13.9585     6.9680     2.9966 H       
  61 H61           11.9128     7.0597     4.3641 H       
  62 H62            0.7161    -6.9352     1.3703 H       
  63 H63            9.5084     5.9266    -1.4712 H       
@<TRIPOS>BOND
   1    1    5 1
   2    1    2 1
   3    1   38 1
   4    1   39 1
   5    2    3 1
   6    2   40 1
   7    2   41 1
   8    3    4 1
   9    3   42 1
  10    3   43 1
  11    4    6 1
  12    4    9 2
  13    5   10 1
  14    5   11 2
  15    6    7 1
  16    7    8 2
  17    7   17 1
  18    8    9 1
  19   10   13 1
  20   11   12 1
  21   12   13 2
  22   13   14 1
  23   14   15 am
  24   14   44 1
  25   15   16 2
  26   15   21 1
  27   17   18 am
  28   17   45 1
  29   18   19 1
  30   18   20 2
  31   19   22 1
  32   19   37 1
  33   19   46 1
  34   21   23 1
  35   21   36 1
  36   21   47 1
  37   22   24 1
  38   22   48 1
  39   22   49 1
  40   23   27 1
  41   23   50 1
  42   23   51 1
  43   24   25 ar
  44   24   32 ar
  45   25   35 ar
  46   25   52 1
  47   26   27 ar
  48   26   28 ar
  49   26   53 1
  50   27   31 ar
  51   28   29 ar
  52   28   54 1
  53   29   30 ar
  54   29   55 1
  55   30   31 ar
  56   30   56 1
  57   31   57 1
  58   32   33 ar
  59   32   58 1
  60   33   34 ar
  61   33   59 1
  62   34   35 ar
  63   34   60 1
  64   35   61 1
  65   36   62 1
  66   37   63 1

#	End of record

