#	Name: ASD03331058
#	Creating user name:	WinNT
#	Creation time:	15. 06. 2019 20:38

#	Modifying user name:	WinNT
#	Modification time:	15. 06. 2019 20:38

#	Program:	/corina/corina34_cracker 3.40 0067  02.08.2006

@<TRIPOS>MOLECULE
ASD03331058
  74   77    0    0    0
SMALL
NO_CHARGES


@<TRIPOS>ATOM
   1 N1            -0.1568     0.8517     0.4847 N.pl3   
   2 C2            -0.1360    -0.5077     0.4848 C.2     
   3 C3             1.0963    -1.3667     0.5976 C.3     
   4 N4             1.9321    -0.8683     1.7011 N.3     
   5 C5             2.8683     0.1568     1.2359 C.3     
   6 C6             2.2528     0.9902     0.1155 C.3     
   7 C7             1.0126     1.7224     0.6353 C.3     
   8 C8            -1.4558     1.2406     0.3323 C.2     
   9 N9            -2.2084     0.1679     0.2595 N.2     
  10 C10           -1.4244    -0.9285     0.3532 C.2     
  11 C11           -1.8816    -2.3289     0.3188 C.2     
  12 O12           -1.0751    -3.2344     0.4125 O.2     
  13 N13           -3.1936    -2.6063     0.1833 N.am    
  14 C14            2.6439    -1.9705     2.3617 C.3     
  15 C15           -4.9578    -4.0813    -0.5918 C.2     
  16 C16           -3.6482    -3.9985     0.1491 C.3     
  17 C17           -3.8381    -4.5083     1.5791 C.3     
  18 C18           -4.4396    -5.9147     1.5435 C.3     
  19 O19           -5.7537    -3.1689    -0.5204 O.2     
  20 C20           -2.4837    -4.5508     2.2895 C.3     
  21 C21           -4.7810    -3.5694     2.3343 C.3     
  22 N22           -5.2448    -5.1692    -1.3339 N.am    
  23 C23           -6.5679    -5.3252    -1.9532 C.3     
  24 C24           -7.1481    -6.6819    -1.5416 C.3     
  25 C25           -6.1524    -7.7877    -1.8993 C.3     
  26 C26           -4.8464    -7.5682    -1.1323 C.3     
  27 C27           -4.2383    -6.2188    -1.5439 C.3     
  28 C28           -7.4936    -4.2050    -1.4745 C.3     
  29 O29           -7.6630    -4.2995    -0.0587 O.3     
  30 C30           -1.9357     2.6378     0.2615 C.ar    
  31 C31           -2.8487     3.0171    -0.7261 C.ar    
  32 C32           -3.2932     4.3245    -0.7860 C.ar    
  33 C33           -2.8361     5.2555     0.1287 C.ar    
  34 C34           -1.9311     4.8856     1.1091 C.ar    
  35 C35           -1.4833     3.5814     1.1837 C.ar    
  36 F36           -3.2955     2.1083    -1.6204 F       
  37 Cl37          -1.3630     6.0628     2.2516 Cl      
  38 H38            0.8047    -2.3976     0.7983 H       
  39 H39            1.6589    -1.3211    -0.3349 H       
  40 H40            3.1258     0.8110     2.0689 H       
  41 H41            3.7736    -0.3257     0.8675 H       
  42 H42            2.9827     1.7189    -0.2370 H       
  43 H43            1.9684     0.3358    -0.7085 H       
  44 H44            0.8623     2.6370     0.0617 H       
  45 H45            1.1499     1.9695     1.6880 H       
  46 H46           -3.8368    -1.8841     0.1085 H       
  47 H47            3.2304    -2.5182     1.6240 H       
  48 H48            3.3074    -1.5676     3.1269 H       
  49 H49            1.9221    -2.6436     2.8243 H       
  50 H50           -2.9038    -4.6114    -0.3593 H       
  51 H51           -3.7330    -6.6003     1.0758 H       
  52 H52           -4.6487    -6.2463     2.5605 H       
  53 H53           -5.3656    -5.8994     0.9687 H       
  54 H54           -2.0552    -3.5488     2.3149 H       
  55 H55           -2.6190    -4.9139     3.3083 H       
  56 H56           -1.8120    -5.2197     1.7515 H       
  57 H57           -5.7459    -3.5392     1.8281 H       
  58 H58           -4.9163    -3.9326     3.3530 H       
  59 H59           -4.3525    -2.5675     2.3596 H       
  60 H60           -6.4709    -5.2832    -3.0380 H       
  61 H61           -7.3293    -6.6892    -0.4668 H       
  62 H62           -8.0860    -6.8520    -2.0703 H       
  63 H63           -6.5733    -8.7564    -1.6299 H       
  64 H64           -5.9528    -7.7640    -2.9706 H       
  65 H65           -5.0492    -7.5671    -0.0613 H       
  66 H66           -4.1461    -8.3690    -1.3696 H       
  67 H67           -3.9551    -6.2482    -2.5960 H       
  68 H68           -3.3601    -6.0105    -0.9327 H       
  69 H69           -7.0545    -3.2391    -1.7242 H       
  70 H70           -8.4630    -4.3008    -1.9636 H       
  71 H71           -8.2395    -3.6188     0.3147 H       
  72 H72           -3.9985     4.6196    -1.5487 H       
  73 H73           -3.1863     6.2759     0.0779 H       
  74 H74           -0.7812     3.2936     1.9522 H       
@<TRIPOS>BOND
   1    1    2 1
   2    1    7 1
   3    1    8 1
   4    2    3 1
   5    2   10 2
   6    3    4 1
   7    3   38 1
   8    3   39 1
   9    4    5 1
  10    4   14 1
  11    5    6 1
  12    5   40 1
  13    5   41 1
  14    6    7 1
  15    6   42 1
  16    6   43 1
  17    7   44 1
  18    7   45 1
  19    8    9 2
  20    8   30 1
  21    9   10 1
  22   10   11 1
  23   11   12 2
  24   11   13 am
  25   13   16 1
  26   13   46 1
  27   14   47 1
  28   14   48 1
  29   14   49 1
  30   15   19 2
  31   15   22 am
  32   15   16 1
  33   16   17 1
  34   16   50 1
  35   17   18 1
  36   17   20 1
  37   17   21 1
  38   18   51 1
  39   18   52 1
  40   18   53 1
  41   20   54 1
  42   20   55 1
  43   20   56 1
  44   21   57 1
  45   21   58 1
  46   21   59 1
  47   22   23 1
  48   22   27 1
  49   23   24 1
  50   23   28 1
  51   23   60 1
  52   24   25 1
  53   24   61 1
  54   24   62 1
  55   25   26 1
  56   25   63 1
  57   25   64 1
  58   26   27 1
  59   26   65 1
  60   26   66 1
  61   27   67 1
  62   27   68 1
  63   28   29 1
  64   28   69 1
  65   28   70 1
  66   29   71 1
  67   30   31 ar
  68   30   35 ar
  69   31   32 ar
  70   31   36 1
  71   32   33 ar
  72   32   72 1
  73   33   34 ar
  74   33   73 1
  75   34   35 ar
  76   34   37 1
  77   35   74 1

#	End of record

