#	Name: ASD01910670
#	Creating user name:	WinNT
#	Creation time:	15. 06. 2019 19:56

#	Modifying user name:	WinNT
#	Modification time:	15. 06. 2019 19:56

#	Program:	/corina/corina34_cracker 3.40 0067  02.08.2006

@<TRIPOS>MOLECULE
ASD01910670
  28   30    0    0    0
SMALL
NO_CHARGES


@<TRIPOS>ATOM
   1 C1            -0.0167     1.3797     0.0096 C.ar    
   2 C2             0.0021    -0.0041     0.0020 C.ar    
   3 C3             1.2058    -0.6867    -0.0127 C.ar    
   4 C4             2.3967     0.0087    -0.0204 C.ar    
   5 C5             2.3859     1.4064    -0.0133 C.ar    
   6 C6             1.1660     2.0888     0.0021 C.ar    
   7 C7             3.6183     2.1356    -0.0212 C.1     
   8 C8             4.6286     2.7335    -0.0276 C.1     
   9 C9             5.8610     3.4627    -0.0355 C.ar    
  10 C10            5.8448     4.8649    -0.0283 C.ar    
  11 C11            7.0381     5.5609    -0.0360 C.ar    
  12 C12            8.2639     4.8600    -0.0511 C.ar    
  13 C13            8.2713     3.4710    -0.0581 C.ar    
  14 C14            7.0786     2.7755    -0.0447 C.ar    
  15 C15            7.3939     6.9961    -0.0321 C.2     
  16 N16            8.7346     7.1039    -0.0442 N.am    
  17 C17            9.3184     5.8923    -0.0558 C.2     
  18 O18           10.5150     5.6826    -0.0674 O.2     
  19 O19            6.6078     7.9218    -0.0204 O.2     
  20 H20           -0.9600     1.9056     0.0170 H       
  21 H21           -0.9274    -0.5540     0.0080 H       
  22 H22            1.2126    -1.7666    -0.0179 H       
  23 H23            3.3354    -0.5254    -0.0316 H       
  24 H24            1.1499     3.1687     0.0074 H       
  25 H25            4.9052     5.3974    -0.0172 H       
  26 H26            9.2091     2.9355    -0.0700 H       
  27 H27            7.0861     1.6955    -0.0498 H       
  28 H28            9.2173     7.9453    -0.0450 H       
@<TRIPOS>BOND
   1    1    2 ar
   2    1    6 ar
   3    1   20 1
   4    2    3 ar
   5    2   21 1
   6    3    4 ar
   7    3   22 1
   8    4    5 ar
   9    4   23 1
  10    5    6 ar
  11    5    7 1
  12    6   24 1
  13    7    8 3
  14    8    9 1
  15    9   10 ar
  16    9   14 ar
  17   10   11 ar
  18   10   25 1
  19   11   12 ar
  20   11   15 1
  21   12   13 ar
  22   12   17 1
  23   13   14 ar
  24   13   26 1
  25   14   27 1
  26   15   16 am
  27   15   19 2
  28   16   17 am
  29   16   28 1
  30   17   18 2

#	End of record

