#	Name: ASD01910326
#	Creating user name:	WinNT
#	Creation time:	15. 06. 2019 19:55

#	Modifying user name:	WinNT
#	Modification time:	15. 06. 2019 19:55

#	Program:	/corina/corina34_cracker 3.40 0067  02.08.2006

@<TRIPOS>MOLECULE
ASD01910326
  45   47    0    0    0
SMALL
NO_CHARGES


@<TRIPOS>ATOM
   1 C1            -0.0486     1.3473     0.7150 C.ar    
   2 C2             0.0433     0.0697     0.1853 C.ar    
   3 C3            -1.0764    -0.5464    -0.3524 C.ar    
   4 C4            -2.2890     0.1088    -0.3627 C.ar    
   5 C5            -2.3883     1.3975     0.1705 C.ar    
   6 C6            -1.2569     2.0112     0.7154 C.ar    
   7 C7            -3.6450     2.0840     0.1624 C.1     
   8 C8            -4.6753     2.6468     0.1558 C.1     
   9 C9            -5.9320     3.3333     0.1477 C.ar    
  10 C10           -6.0286     4.6231     0.6821 C.ar    
  11 C11           -7.2273     5.2771     0.6741 C.ar    
  12 C12           -8.3580     4.6585     0.1322 C.ar    
  13 C13           -8.2624     3.3697    -0.4014 C.ar    
  14 C14           -7.0629     2.7169    -0.3997 C.ar    
  15 C15           -9.6534     5.3661     0.1240 C.2     
  16 O16          -10.6489     4.8169     0.5550 O.2     
  17 N17           -9.7328     6.6209    -0.3615 N.am    
  18 C18          -11.0285     7.3076    -0.4531 C.3     
  19 C19          -11.2222     7.8055    -1.8888 C.3     
  20 C20          -10.0238     8.6681    -2.2914 C.3     
  21 C21           -8.7469     7.8260    -2.2403 C.3     
  22 C22           -8.5244     7.3304    -0.8033 C.3     
  23 O23          -10.2164     9.1607    -3.6189 O.3     
  24 F24            1.2290    -0.5778     0.1925 F       
  25 C25            1.1734     2.0095     1.2974 C.3     
  26 H26           -0.9983    -1.5417    -0.7643 H       
  27 H27           -3.1604    -0.3719    -0.7821 H       
  28 H28           -1.3273     3.0065     1.1287 H       
  29 H29           -5.1553     5.1009     1.1011 H       
  30 H30           -7.3021     6.2724     1.0868 H       
  31 H31           -9.1363     2.8921    -0.8192 H       
  32 H32           -6.9891     1.7216    -0.8123 H       
  33 H33          -11.8288     6.6137    -0.1959 H       
  34 H34          -11.0423     8.1548     0.2325 H       
  35 H35          -11.2988     6.9521    -2.5626 H       
  36 H36          -12.1342     8.3995    -1.9480 H       
  37 H37           -9.9329     9.5077    -1.6023 H       
  38 H38           -8.8469     6.9725    -2.9108 H       
  39 H39           -7.8972     8.4346    -2.5496 H       
  40 H40           -8.3337     8.1809    -0.1488 H       
  41 H41           -7.6732     6.6500    -0.7791 H       
  42 H42           -9.4937     9.7168    -3.9407 H       
  43 H43            1.6913     2.5670     0.5169 H       
  44 H44            0.8729     2.6916     2.0927 H       
  45 H45            1.8400     1.2488     1.7038 H       
@<TRIPOS>BOND
   1    1    2 ar
   2    1   25 1
   3    1    6 ar
   4    2    3 ar
   5    2   24 1
   6    3    4 ar
   7    3   26 1
   8    4    5 ar
   9    4   27 1
  10    5    6 ar
  11    5    7 1
  12    6   28 1
  13    7    8 3
  14    8    9 1
  15    9   10 ar
  16    9   14 ar
  17   10   11 ar
  18   10   29 1
  19   11   12 ar
  20   11   30 1
  21   12   13 ar
  22   12   15 1
  23   13   14 ar
  24   13   31 1
  25   14   32 1
  26   15   16 2
  27   15   17 am
  28   17   18 1
  29   17   22 1
  30   18   19 1
  31   18   33 1
  32   18   34 1
  33   19   20 1
  34   19   35 1
  35   19   36 1
  36   20   21 1
  37   20   23 1
  38   20   37 1
  39   21   22 1
  40   21   38 1
  41   21   39 1
  42   22   40 1
  43   22   41 1
  44   23   42 1
  45   25   43 1
  46   25   44 1
  47   25   45 1

#	End of record

