#	Name: ASD00844509
#	Creating user name:	WinNT
#	Creation time:	15. 06. 2019 18:50

#	Modifying user name:	WinNT
#	Modification time:	15. 06. 2019 18:50

#	Program:	/corina/corina34_cracker 3.40 0067  02.08.2006

@<TRIPOS>MOLECULE
ASD00844509
  91   96    0    0    0
SMALL
NO_CHARGES


@<TRIPOS>ATOM
   1 F1            -0.0971    -3.1527     4.7121 F       
   2 C2            -0.0149     1.3803     0.0254 C.ar    
   3 C3             0.0029    -0.0066     0.0108 C.ar    
   4 C4             1.2146    -0.6824    -0.0068 C.ar    
   5 C5             2.3997     0.0270    -0.0096 C.ar    
   6 C6             2.3793     1.4096     0.0055 C.ar    
   7 C7             1.1734     2.0853     0.0225 C.ar    
   8 C8             1.2376    -2.1892    -0.0222 C.3     
   9 C9             0.4952    -2.7185    -1.2307 C.2     
  10 N10            2.6178    -2.6802    -0.0121 N.am    
  11 C11            3.4634    -2.3342    -1.0029 C.2     
  12 N12            4.7590    -2.7005    -0.9417 N.am    
  13 O13            3.0575    -1.6917    -1.9520 O.2     
  14 C14            5.6727    -2.4339    -2.0631 C.3     
  15 C15            6.9193    -1.7288    -1.5183 C.3     
  16 N16            7.4922    -2.5277    -0.4268 N.3     
  17 C17            6.5583    -2.6350     0.7020 C.3     
  18 C18            5.2982    -3.3718     0.2507 C.3     
  19 C19            8.7825    -1.9764     0.0081 C.3     
  20 C20            9.2885    -2.7566     1.2245 C.3     
  21 C21           10.6607    -2.2177     1.6354 C.3     
  22 N22           11.5993    -2.3600     0.5151 N.3     
  23 C23           11.1586    -1.5811    -0.6491 C.3     
  24 C24            9.8013    -2.1009    -1.1282 C.3     
  25 H25           12.5342    -2.0998     0.7914 H       
  26 O26            0.7752    -2.5167    -2.3935 O.2     
  27 N27           -0.5318    -3.4543    -0.7733 N.am    
  28 C28            0.4671    -2.7426     1.1545 C.ar    
  29 C29           -0.5768    -3.4888     0.6220 C.ar    
  30 C30            0.6303    -2.6280     2.5168 C.ar    
  31 C31           -0.2538    -3.2621     3.3747 C.ar    
  32 C32           -1.2998    -4.0099     2.8554 C.ar    
  33 C33           -1.4632    -4.1246     1.4883 C.ar    
  34 F34           -2.1630    -4.6291     3.6901 F       
  35 C35           -0.9829    -5.8439    -2.0620 C.ar    
  36 C36            0.1964    -5.9982    -2.7765 C.ar    
  37 C37           -1.6557    -6.9543    -1.5886 C.ar    
  38 C38           -1.1560    -8.2204    -1.8250 C.ar    
  39 C39            0.0233    -8.3801    -2.5393 C.ar    
  40 C40            0.6997    -7.2679    -3.0155 C.ar    
  41 O41            0.5141    -9.6258    -2.7719 O.3     
  42 O42            0.8573    -4.9059    -3.2422 O.3     
  43 C43           -0.2353   -10.7259    -2.2521 C.3     
  44 C44            2.0649    -5.1396    -3.9697 C.3     
  45 C45            2.6621    -3.8015    -4.4099 C.3     
  46 S46           -1.6194    -4.2304    -1.7516 S.o2    
  47 O47           -2.7994    -4.4062    -0.9796 O.2     
  48 O48           -1.5998    -3.5451    -2.9963 O.2     
  49 O49           -1.1645    -0.7024     0.0141 O.3     
  50 C50           -2.3735     0.0592     0.0330 C.3     
  51 C51           -3.5739    -0.8896     0.0339 C.3     
  52 F52           -3.5411    -1.6842    -1.1171 F       
  53 F53           -3.5205    -1.7080     1.1673 F       
  54 H54           -0.9568     1.9086     0.0346 H       
  55 H55            3.3431    -0.4985    -0.0233 H       
  56 H56            3.3071     1.9625     0.0039 H       
  57 H57            1.1601     3.1652     0.0343 H       
  58 H58            2.9231    -3.2544     0.7076 H       
  59 H59            5.9600    -3.3746    -2.5329 H       
  60 H60            5.1789    -1.7926    -2.7932 H       
  61 H61            7.6547    -1.6222    -2.3158 H       
  62 H62            6.6446    -0.7432    -1.1422 H       
  63 H63            7.0318    -3.1857     1.5148 H       
  64 H64            6.2886    -1.6369     1.0471 H       
  65 H65            4.5572    -3.3533     1.0498 H       
  66 H66            5.5467    -4.4035     0.0017 H       
  67 H67            8.6589    -0.9266     0.2743 H       
  68 H68            8.5880    -2.6366     2.0510 H       
  69 H69            9.3738    -3.8129     0.9696 H       
  70 H70           10.5720    -1.1649     1.9035 H       
  71 H71           11.0302    -2.7807     2.4925 H       
  72 H72           11.0676    -0.5313    -0.3703 H       
  73 H73           11.8897    -1.6816    -1.4513 H       
  74 H74            9.8946    -3.1469    -1.4202 H       
  75 H75            9.4671    -1.5124    -1.9826 H       
  76 H76            1.4468    -2.0447     2.9163 H       
  77 H77           -2.2802    -4.7082     1.0904 H       
  78 H78           -2.5735    -6.8322    -1.0326 H       
  79 H79           -1.6832    -9.0867    -1.4534 H       
  80 H80            1.6173    -7.3901    -3.5719 H       
  81 H81           -0.3067   -10.6370    -1.1681 H       
  82 H82           -1.2361   -10.7201    -2.6839 H       
  83 H83            0.2654   -11.6597    -2.5079 H       
  84 H84            2.7774    -5.6634    -3.3325 H       
  85 H85            1.8480    -5.7472    -4.8482 H       
  86 H86            2.8790    -3.1938    -3.5313 H       
  87 H87            3.5832    -3.9797    -4.9648 H       
  88 H88            1.9496    -3.2776    -5.0471 H       
  89 H89           -2.3990     0.6782     0.9297 H       
  90 H90           -2.4151     0.6968    -0.8501 H       
  91 H91           -4.4961    -0.3087     0.0483 H       
@<TRIPOS>BOND
   1    1   31 1
   2    2    3 ar
   3    2    7 ar
   4    2   54 1
   5    3    4 ar
   6    3   49 1
   7    4    5 ar
   8    4    8 1
   9    5    6 ar
  10    5   55 1
  11    6    7 ar
  12    6   56 1
  13    7   57 1
  14    8    9 1
  15    8   10 1
  16    8   28 1
  17    9   26 2
  18    9   27 am
  19   10   11 am
  20   10   58 1
  21   11   12 am
  22   11   13 2
  23   12   14 1
  24   12   18 1
  25   14   15 1
  26   14   59 1
  27   14   60 1
  28   15   16 1
  29   15   61 1
  30   15   62 1
  31   16   17 1
  32   16   19 1
  33   17   18 1
  34   17   63 1
  35   17   64 1
  36   18   65 1
  37   18   66 1
  38   19   20 1
  39   19   24 1
  40   19   67 1
  41   20   21 1
  42   20   68 1
  43   20   69 1
  44   21   22 1
  45   21   70 1
  46   21   71 1
  47   22   23 1
  48   22   25 1
  49   23   24 1
  50   23   72 1
  51   23   73 1
  52   24   74 1
  53   24   75 1
  54   27   46 am
  55   27   29 1
  56   28   29 ar
  57   28   30 ar
  58   29   33 ar
  59   30   31 ar
  60   30   76 1
  61   31   32 ar
  62   32   33 ar
  63   32   34 1
  64   33   77 1
  65   35   36 ar
  66   35   37 ar
  67   35   46 1
  68   36   42 1
  69   36   40 ar
  70   37   38 ar
  71   37   78 1
  72   38   39 ar
  73   38   79 1
  74   39   40 ar
  75   39   41 1
  76   40   80 1
  77   41   43 1
  78   42   44 1
  79   43   81 1
  80   43   82 1
  81   43   83 1
  82   44   45 1
  83   44   84 1
  84   44   85 1
  85   45   86 1
  86   45   87 1
  87   45   88 1
  88   46   47 2
  89   46   48 2
  90   49   50 1
  91   50   51 1
  92   50   89 1
  93   50   90 1
  94   51   52 1
  95   51   53 1
  96   51   91 1

#	End of record

