#	Name: ASD08830054
#	Creating user name:	WinNT
#	Creation time:	15. 06. 2019 21:19

#	Modifying user name:	WinNT
#	Modification time:	15. 06. 2019 21:19

#	Program:	/corina/corina34_cracker 3.40 0067  02.08.2006

@<TRIPOS>MOLECULE
ASD08830054
  54   56    0    0    0
SMALL
NO_CHARGES


@<TRIPOS>ATOM
   1 C1            -0.0172     1.4144     0.0098 C.ar    
   2 C2             0.0021    -0.0041     0.0020 C.ar    
   3 C3             1.1959     2.1287     0.0021 C.ar    
   4 C4             2.3769     1.4621    -0.0133 C.ar    
   5 C5             2.4108     0.0535    -0.0217 C.ar    
   6 C6             1.2315    -0.6786    -0.0139 C.ar    
   7 C7             3.7045    -0.6459    -0.0393 C.2     
   8 C8             4.9879     0.1439    -0.0483 C.3     
   9 C9             6.1781    -0.8173    -0.0663 C.3     
  10 N10            7.4292    -0.0475    -0.0751 N.3     
  11 O11            3.7384    -1.8581    -0.0465 O.2     
  12 C12            8.5882    -0.9235     0.1460 C.3     
  13 C13           -1.2511     2.0843     0.0194 C.ar    
  14 C14           -1.2141    -0.7105     0.0099 C.ar    
  15 C15           -2.3907    -0.0259     0.0249 C.ar    
  16 C16           -2.4091     1.3672     0.0210 C.ar    
  17 C17            9.8736    -0.0983     0.0506 C.3     
  18 N18            9.8350     0.9808     1.0474 N.3     
  19 C19            8.6760     1.8568     0.8264 C.3     
  20 C20            7.3906     1.0316     0.9218 C.3     
  21 C21           11.0861     1.7506     1.0387 C.3     
  22 C22           10.9195     3.0044     1.8996 C.3     
  23 N23           12.1705     3.7743     1.8908 N.3     
  24 C24           11.9805     5.0947     2.5059 C.3     
  25 C25           13.2494     3.0332     2.5578 C.3     
  26 H26            1.1860     3.2087     0.0080 H       
  27 H27            3.3029     2.0179    -0.0195 H       
  28 H28            1.2604    -1.7581    -0.0203 H       
  29 H29            5.0187     0.7770    -0.9350 H       
  30 H30            5.0375     0.7668     0.8448 H       
  31 H31            6.1473    -1.4504     0.8205 H       
  32 H32            6.1285    -1.4403    -0.9594 H       
  33 H33            8.5189    -1.3756     1.1354 H       
  34 H34            8.6018    -1.7068    -0.6120 H       
  35 H35           -1.2819     3.1638     0.0257 H       
  36 H36           -1.2146    -1.7904     0.0038 H       
  37 H37           -3.3233    -0.5705     0.0306 H       
  38 H38           -3.3559     1.8865     0.0335 H       
  39 H39           10.7331    -0.7404     0.2429 H       
  40 H40            9.9566     0.3316    -0.9476 H       
  41 H41            8.6624     2.6401     1.5843 H       
  42 H42            8.7453     2.3089    -0.1630 H       
  43 H43            6.5311     1.6737     0.7295 H       
  44 H44            7.3076     0.6017     1.9200 H       
  45 H45           11.8926     1.1379     1.4414 H       
  46 H46           11.3266     2.0414     0.0161 H       
  47 H47           10.1130     3.6171     1.4968 H       
  48 H48           10.6790     2.7136     2.9222 H       
  49 H49           11.6535     4.9709     3.5383 H       
  50 H50           12.9220     5.6436     2.4862 H       
  51 H51           11.2249     5.6493     1.9495 H       
  52 H52           13.4163     2.0891     2.0391 H       
  53 H53           14.1640     3.6258     2.5370 H       
  54 H54           12.9684     2.8347     3.5921 H       
@<TRIPOS>BOND
   1    1    2 ar
   2    1    3 ar
   3    1   13 ar
   4    2   14 ar
   5    2    6 ar
   6    3    4 ar
   7    3   26 1
   8    4    5 ar
   9    4   27 1
  10    5    6 ar
  11    5    7 1
  12    6   28 1
  13    7    8 1
  14    7   11 2
  15    8    9 1
  16    8   29 1
  17    8   30 1
  18    9   10 1
  19    9   31 1
  20    9   32 1
  21   10   12 1
  22   10   20 1
  23   12   17 1
  24   12   33 1
  25   12   34 1
  26   13   16 ar
  27   13   35 1
  28   14   15 ar
  29   14   36 1
  30   15   16 ar
  31   15   37 1
  32   16   38 1
  33   17   18 1
  34   17   39 1
  35   17   40 1
  36   18   19 1
  37   18   21 1
  38   19   20 1
  39   19   41 1
  40   19   42 1
  41   20   43 1
  42   20   44 1
  43   21   22 1
  44   21   45 1
  45   21   46 1
  46   22   23 1
  47   22   47 1
  48   22   48 1
  49   23   24 1
  50   23   25 1
  51   24   49 1
  52   24   50 1
  53   24   51 1
  54   25   52 1
  55   25   53 1
  56   25   54 1

#	End of record

