#	Name: ASD01148636
#	Creating user name:	WinNT
#	Creation time:	15. 06. 2019 19:02

#	Modifying user name:	WinNT
#	Modification time:	15. 06. 2019 19:02

#	Program:	/corina/corina34_cracker 3.40 0067  02.08.2006

@<TRIPOS>MOLECULE
ASD01148636
  67   71    0    0    0
SMALL
NO_CHARGES


@<TRIPOS>ATOM
   1 C1            -0.0649     0.5044     0.5957 C.ar    
   2 C2            -0.3259    -0.8530     0.6101 C.ar    
   3 C3            -1.6228    -1.3091     0.4659 C.ar    
   4 C4            -2.6589    -0.4077     0.3078 C.ar    
   5 C5            -2.3981     0.9498     0.2944 C.ar    
   6 C6            -1.1016     1.4060     0.4430 C.ar    
   7 C7            -3.5275     1.9324     0.1217 C.3     
   8 O8            -4.7477     1.4223     0.6963 O.3     
   9 C9            -3.2882     3.2054     0.9680 C.3     
  10 C10           -4.0367     2.8946     2.2502 C.2     
  11 N11           -4.8237     1.8941     2.0270 N.2     
  12 C12           -3.8911     3.6095     3.5298 C.ar    
  13 C13           -4.6775     3.2038     4.6922 C.ar    
  14 C14           -3.0015     4.6693     3.6404 C.ar    
  15 C15           -2.8441     5.3581     4.8298 C.ar    
  16 C16           -3.5693     5.0190     5.9643 C.ar    
  17 C17           -4.5169     3.9081     5.9088 C.ar    
  18 C18           -3.3802     5.7704     7.2174 C.2     
  19 O19           -2.8529     5.2355     8.1732 O.2     
  20 N20           -3.7919     7.0508     7.3039 N.am    
  21 C21           -5.2690     3.5307     7.0282 C.ar    
  22 C22           -5.5826     2.1367     4.6277 C.ar    
  23 C23           -3.7226     2.2840    -1.3545 C.3     
  24 F24           -4.0062     1.1204    -2.0775 F       
  25 F25           -4.7861     3.1838    -1.4830 F       
  26 F26           -2.5537     2.8694    -1.8529 F       
  27 C27           -3.6904     7.7684     8.5771 C.3     
  28 C28           -2.3526     8.4572     8.6603 C.ar    
  29 N29           -1.3017     7.7896     9.0943 N.ar    
  30 C30           -4.2969     7.6711     6.2192 C.2     
  31 C31           -0.1117     8.3511     9.1838 C.ar    
  32 C32            0.0757     9.6716     8.8226 C.ar    
  33 C33           -1.0064    10.4061     8.3613 C.ar    
  34 C34           -2.2402     9.7800     8.2753 C.ar    
  35 O35           -4.2988     7.1075     5.1432 O.2     
  36 O36           -4.7992     8.9151     6.3283 O.3     
  37 C37           -5.3263     9.5216     5.1188 C.3     
  38 C38           -6.2961     1.7912     5.7368 C.ar    
  39 C39           -6.1418     2.4876     6.9325 C.ar    
  40 C40           -1.9072    -2.7889     0.4805 C.3     
  41 F41           -0.7099    -3.4922     0.6513 F       
  42 F42           -2.7771    -3.0862     1.5350 F       
  43 F43           -2.4985    -3.1622    -0.7312 F       
  44 C44            1.3490     1.0016     0.7529 C.3     
  45 F45            2.2135    -0.0889     0.8967 F       
  46 F46            1.7126     1.7388    -0.3792 F       
  47 F47            1.4335     1.8164     1.8870 F       
  48 H48            0.4836    -1.5572     0.7335 H       
  49 H49           -3.6721    -0.7640     0.1945 H       
  50 H50           -0.8978     2.4665     0.4325 H       
  51 H51           -2.2252     3.3452     1.1647 H       
  52 H52           -3.7103     4.0819     0.4764 H       
  53 H53           -2.4192     4.9623     2.7793 H       
  54 H54           -2.1418     6.1771     4.8770 H       
  55 H55           -5.1582     4.0625     7.9616 H       
  56 H56           -5.7147     1.5913     3.7050 H       
  57 H57           -4.4859     8.5109     8.6402 H       
  58 H58           -3.7869     7.0616     9.4013 H       
  59 H59            0.7259     7.7723     9.5440 H       
  60 H60            1.0524    10.1261     8.8988 H       
  61 H61           -0.8897    11.4401     8.0722 H       
  62 H62           -3.1046    10.3215     7.9200 H       
  63 H63           -4.5352     9.5895     4.3720 H       
  64 H64           -6.1407     8.9099     4.7308 H       
  65 H65           -5.6985    10.5206     5.3458 H       
  66 H66           -6.9938     0.9683     5.6862 H       
  67 H67           -6.7211     2.1971     7.7965 H       
@<TRIPOS>BOND
   1    1    2 ar
   2    1   44 1
   3    1    6 ar
   4    2    3 ar
   5    2   48 1
   6    3    4 ar
   7    3   40 1
   8    4    5 ar
   9    4   49 1
  10    5    6 ar
  11    5    7 1
  12    6   50 1
  13    7    8 1
  14    7    9 1
  15    7   23 1
  16    8   11 1
  17    9   10 1
  18    9   51 1
  19    9   52 1
  20   10   11 2
  21   10   12 1
  22   12   13 ar
  23   12   14 ar
  24   13   22 ar
  25   13   17 ar
  26   14   15 ar
  27   14   53 1
  28   15   16 ar
  29   15   54 1
  30   16   17 ar
  31   16   18 1
  32   17   21 ar
  33   18   19 2
  34   18   20 am
  35   20   27 1
  36   20   30 am
  37   21   39 ar
  38   21   55 1
  39   22   38 ar
  40   22   56 1
  41   23   24 1
  42   23   25 1
  43   23   26 1
  44   27   28 1
  45   27   57 1
  46   27   58 1
  47   28   29 ar
  48   28   34 ar
  49   29   31 ar
  50   30   35 2
  51   30   36 1
  52   31   32 ar
  53   31   59 1
  54   32   33 ar
  55   32   60 1
  56   33   34 ar
  57   33   61 1
  58   34   62 1
  59   36   37 1
  60   37   63 1
  61   37   64 1
  62   37   65 1
  63   38   39 ar
  64   38   66 1
  65   39   67 1
  66   40   41 1
  67   40   42 1
  68   40   43 1
  69   44   45 1
  70   44   46 1
  71   44   47 1

#	End of record

