#	Name: ASD01913244
#	Creating user name:	WinNT
#	Creation time:	15. 06. 2019 20:01

#	Modifying user name:	WinNT
#	Modification time:	15. 06. 2019 20:01

#	Program:	/corina/corina34_cracker 3.40 0067  02.08.2006

@<TRIPOS>MOLECULE
ASD01913244
  47   50    0    0    0
SMALL
NO_CHARGES


@<TRIPOS>ATOM
   1 C1             0.0435     1.4355     0.0301 C.ar    
   2 C2             0.0506     0.0528     0.0066 C.ar    
   3 N3             1.1838    -0.6183    -0.0051 N.ar    
   4 C4             2.3601     0.0014     0.0051 C.ar    
   5 C5             2.4256     1.3971     0.0289 C.ar    
   6 C6             1.2493     2.1241     0.0415 C.ar    
   7 C7             3.5685    -0.7669    -0.0078 C.1     
   8 C8             4.5592    -1.3967    -0.0183 C.1     
   9 C9             5.7676    -2.1649    -0.0312 C.ar    
  10 C10            7.0083    -1.5203    -0.0206 C.ar    
  11 C11            8.1737    -2.2602    -0.0335 C.ar    
  12 C12            8.1233    -3.6399    -0.0570 C.ar    
  13 C13            6.8908    -4.2975    -0.0679 C.ar    
  14 C14            5.7102    -3.5588    -0.0487 C.ar    
  15 C15            7.0734    -0.0149     0.0046 C.3     
  16 C16            6.8397    -5.7751    -0.0941 C.2     
  17 O17            5.9577    -6.3634     0.5004 O.2     
  18 N18            7.7712    -6.4696    -0.7771 N.am    
  19 C19            7.8268    -7.9397    -0.7181 C.3     
  20 C20            7.5316    -8.4772    -2.1176 C.3     
  21 C21            8.3421    -7.7457    -3.1549 C.ar    
  22 C22            8.9050    -6.5099    -2.9285 C.ar    
  23 C23            8.7670    -5.7917    -1.6142 C.3     
  24 C24            8.5163    -8.3618    -4.3885 C.ar    
  25 C25            9.2412    -7.7435    -5.3855 C.ar    
  26 C26            9.7997    -6.4991    -5.1589 C.ar    
  27 C27            9.6309    -5.8864    -3.9345 C.ar    
  28 H28           -0.8920     1.9753     0.0351 H       
  29 H29           -0.8863    -0.4843    -0.0019 H       
  30 H30            3.3809     1.9006     0.0375 H       
  31 H31            1.2680     3.2038     0.0595 H       
  32 H32            9.1296    -1.7575    -0.0256 H       
  33 H33            9.0392    -4.2121    -0.0674 H       
  34 H34            4.7549    -4.0624    -0.0566 H       
  35 H35            7.0892     0.3308     1.0381 H       
  36 H36            7.9782     0.3181    -0.5039 H       
  37 H37            6.1999     0.3951    -0.5024 H       
  38 H38            8.8200    -8.2589    -0.4024 H       
  39 H39            7.0794    -8.3092    -0.0159 H       
  40 H40            7.7775    -9.5384    -2.1533 H       
  41 H41            6.4712    -8.3482    -2.3348 H       
  42 H42            8.4547    -4.7630    -1.7940 H       
  43 H43            9.7265    -5.7938    -1.0971 H       
  44 H44            8.0805    -9.3336    -4.5677 H       
  45 H45            9.3725    -8.2301    -6.3407 H       
  46 H46           10.3660    -6.0090    -5.9371 H       
  47 H47           10.0662    -4.9141    -3.7573 H       
@<TRIPOS>BOND
   1    1    2 ar
   2    1    6 ar
   3    1   28 1
   4    2    3 ar
   5    2   29 1
   6    3    4 ar
   7    4    5 ar
   8    4    7 1
   9    5    6 ar
  10    5   30 1
  11    6   31 1
  12    7    8 3
  13    8    9 1
  14    9   10 ar
  15    9   14 ar
  16   10   11 ar
  17   10   15 1
  18   11   12 ar
  19   11   32 1
  20   12   13 ar
  21   12   33 1
  22   13   14 ar
  23   13   16 1
  24   14   34 1
  25   15   35 1
  26   15   36 1
  27   15   37 1
  28   16   17 2
  29   16   18 am
  30   18   19 1
  31   18   23 1
  32   19   20 1
  33   19   38 1
  34   19   39 1
  35   20   21 1
  36   20   40 1
  37   20   41 1
  38   21   22 ar
  39   21   24 ar
  40   22   23 1
  41   22   27 ar
  42   23   42 1
  43   23   43 1
  44   24   25 ar
  45   24   44 1
  46   25   26 ar
  47   25   45 1
  48   26   27 ar
  49   26   46 1
  50   27   47 1

#	End of record

