#	Name: ASD02198331
#	Creating user name:	WinNT
#	Creation time:	15. 06. 2019 20:19

#	Modifying user name:	WinNT
#	Modification time:	15. 06. 2019 20:19

#	Program:	/corina/corina34_cracker 3.40 0067  02.08.2006

@<TRIPOS>MOLECULE
ASD02198331
  38   40    0    0    0
SMALL
NO_CHARGES


@<TRIPOS>ATOM
   1 C1             1.5443     1.6291    -0.9721 C.2     
   2 C2             1.6132     0.2805    -0.6764 C.2     
   3 S3             2.8602     2.4321    -0.1193 S.3     
   4 C4             3.3690     0.9385     0.5362 C.2     
   5 N5             2.6014    -0.0312     0.1292 N.2     
   6 N6             0.7230    -0.6536    -1.1822 N.pl3   
   7 C7             0.5965     2.2487    -1.8093 C.2     
   8 C8             0.5487     3.7230    -1.9074 C.ar    
   9 O9            -0.1850     1.5691    -2.4533 O.2     
  10 N10            4.4453     0.7816     1.3811 N.pl3   
  11 C11           -0.0399     4.3320    -3.0179 C.ar    
  12 C12            1.0869     4.5103    -0.8871 C.ar    
  13 C13            1.0402     5.8837    -0.9819 C.ar    
  14 C14            0.4584     6.4860    -2.0909 C.ar    
  15 C15           -0.0830     5.7060    -3.1056 C.ar    
  16 C16            4.8632    -0.5015     1.7508 C.ar    
  17 C17            4.3037    -1.6173     1.1438 C.ar    
  18 C18            4.7189    -2.8832     1.5106 C.ar    
  19 C19            5.6903    -3.0404     2.4816 C.ar    
  20 C20            6.2510    -1.9316     3.0895 C.ar    
  21 C21            5.8448    -0.6618     2.7236 C.ar    
  22 O22            0.4141     7.8398    -2.1808 O.3     
  23 C23           -0.1982     8.3929    -3.3475 C.3     
  24 F24            0.4932     7.9630    -4.4853 F       
  25 F25           -1.5289     7.9675    -3.4220 F       
  26 F26            6.3923     0.4211     3.3173 F       
  27 H27            0.0084    -0.3716    -1.7745 H       
  28 H28            0.8145    -1.5894    -0.9439 H       
  29 H29            4.9135     1.5607     1.7198 H       
  30 H30           -0.4605     3.7264    -3.8071 H       
  31 H31            1.5390     4.0429    -0.0248 H       
  32 H32            1.4559     6.4932    -0.1931 H       
  33 H33           -0.5343     6.1776    -3.9660 H       
  34 H34            3.5442    -1.4962     0.3856 H       
  35 H35            4.2834    -3.7513     1.0382 H       
  36 H36            6.0119    -4.0312     2.7664 H       
  37 H37            7.0095    -2.0579     3.8480 H       
  38 H38           -0.1671     9.4811    -3.2930 H       
@<TRIPOS>BOND
   1    1    2 2
   2    1    3 1
   3    1    7 1
   4    2    6 1
   5    2    5 1
   6    3    4 1
   7    4    5 2
   8    4   10 1
   9    6   27 1
  10    6   28 1
  11    7    8 1
  12    7    9 2
  13    8   11 ar
  14    8   12 ar
  15   10   16 1
  16   10   29 1
  17   11   15 ar
  18   11   30 1
  19   12   13 ar
  20   12   31 1
  21   13   14 ar
  22   13   32 1
  23   14   15 ar
  24   14   22 1
  25   15   33 1
  26   16   17 ar
  27   16   21 ar
  28   17   18 ar
  29   17   34 1
  30   18   19 ar
  31   18   35 1
  32   19   20 ar
  33   19   36 1
  34   20   21 ar
  35   20   37 1
  36   21   26 1
  37   22   23 1
  38   23   24 1
  39   23   25 1
  40   23   38 1

#	End of record

