#	Name: ASD01812837
#	Creating user name:	WinNT
#	Creation time:	15. 06. 2019 19:29

#	Modifying user name:	WinNT
#	Modification time:	15. 06. 2019 19:29

#	Program:	/corina/corina34_cracker 3.40 0067  02.08.2006

@<TRIPOS>MOLECULE
ASD01812837
  58   63    0    0    0
SMALL
NO_CHARGES


@<TRIPOS>ATOM
   1 N1            -0.0158     1.3146     0.0093 N.ar    
   2 C2             0.0021    -0.0041     0.0020 C.ar    
   3 C3             1.1989    -0.7034    -0.0132 C.ar    
   4 C4             2.3830    -0.0017    -0.0207 C.ar    
   5 C5             2.3452     1.3975    -0.0128 C.ar    
   6 C6             1.0957     2.0332     0.0025 C.ar    
   7 C7             3.8374    -0.3895    -0.0371 C.3     
   8 N8             4.5957     0.8678    -0.0379 N.am    
   9 C9             3.7284     1.8956    -0.0238 C.2     
  10 C10            6.0561     0.9836    -0.0513 C.3     
  11 C11            6.5432     1.0307    -1.4766 C.ar    
  12 C12            6.6712     2.2478    -2.1212 C.ar    
  13 C13            7.1169     2.2968    -3.4265 C.ar    
  14 C14            7.4386     1.1172    -4.0948 C.ar    
  15 C15            7.3082    -0.1062    -3.4404 C.ar    
  16 C16            6.8662    -0.1430    -2.1335 C.ar    
  17 O17            1.0259     3.3855     0.0100 O.3     
  18 O18            4.0435     3.0700    -0.0210 O.2     
  19 C19           -0.2060     3.9611     0.0244 C.ar    
  20 C20            7.9178     1.1635    -5.4983 C.ar    
  21 C21           -0.8235     4.2487     1.2317 C.ar    
  22 C22           -2.0757     4.8337     1.2452 C.ar    
  23 C23           -2.7146     5.1325     0.0541 C.ar    
  24 C24           -2.1004     4.8464    -1.1537 C.ar    
  25 C25           -0.8450     4.2668    -1.1710 C.ar    
  26 F26           -0.2428     3.9929    -2.3490 F       
  27 C27           -0.1297     3.9232     2.5293 C.3     
  28 C28            8.0559     2.3779    -6.1746 C.ar    
  29 N29            8.4841     2.3854    -7.4213 N.ar    
  30 N30            8.7841     1.3080    -8.0498 N.ar    
  31 C31            8.6866     0.1136    -7.4960 C.ar    
  32 C32            8.2525    -0.0083    -6.1881 C.ar    
  33 C33            9.0535    -1.1160    -8.2862 C.3     
  34 F34           -3.9389     5.7035     0.0700 F       
  35 C35           -0.7652     4.4438     3.8201 C.3     
  36 C36           -0.8318     2.9532     3.4818 C.3     
  37 H37           -0.9309    -0.5480     0.0084 H       
  38 H38            1.2022    -1.7834    -0.0186 H       
  39 H39            4.0799    -0.9729     0.8511 H       
  40 H40            4.0622    -0.9634    -0.9362 H       
  41 H41            6.3529     1.8969     0.4645 H       
  42 H42            6.4935     0.1225     0.4540 H       
  43 H43            6.4216     3.1615    -1.6022 H       
  44 H44            7.2158     3.2476    -3.9291 H       
  45 H45            7.5562    -1.0234    -3.9537 H       
  46 H46            6.7683    -1.0903    -1.6241 H       
  47 H47           -2.5563     5.0576     2.1861 H       
  48 H48           -2.6003     5.0797    -2.0822 H       
  49 H49            0.9586     3.8846     2.4838 H       
  50 H50            7.8128     3.3060    -5.6787 H       
  51 H51            8.1706    -0.9761    -5.7157 H       
  52 H52           10.1113    -1.3373    -8.1437 H       
  53 H53            8.4562    -1.9605    -7.9425 H       
  54 H54            8.8585    -0.9397    -9.3440 H       
  55 H55           -0.0949     4.7480     4.6240 H       
  56 H56           -1.6850     5.0218     3.7307 H       
  57 H57           -1.7954     2.5505     3.1698 H       
  58 H58           -0.2052     2.2767     4.0631 H       
@<TRIPOS>BOND
   1    1    2 ar
   2    1    6 ar
   3    2    3 ar
   4    2   37 1
   5    3    4 ar
   6    3   38 1
   7    4    7 1
   8    4    5 ar
   9    5    6 ar
  10    5    9 1
  11    6   17 1
  12    7    8 1
  13    7   39 1
  14    7   40 1
  15    8    9 am
  16    8   10 1
  17    9   18 2
  18   10   11 1
  19   10   41 1
  20   10   42 1
  21   11   12 ar
  22   11   16 ar
  23   12   13 ar
  24   12   43 1
  25   13   14 ar
  26   13   44 1
  27   14   15 ar
  28   14   20 1
  29   15   16 ar
  30   15   45 1
  31   16   46 1
  32   17   19 1
  33   19   21 ar
  34   19   25 ar
  35   20   28 ar
  36   20   32 ar
  37   21   22 ar
  38   21   27 1
  39   22   23 ar
  40   22   47 1
  41   23   24 ar
  42   23   34 1
  43   24   25 ar
  44   24   48 1
  45   25   26 1
  46   27   36 1
  47   27   35 1
  48   27   49 1
  49   28   29 ar
  50   28   50 1
  51   29   30 ar
  52   30   31 ar
  53   31   32 ar
  54   31   33 1
  55   32   51 1
  56   33   52 1
  57   33   53 1
  58   33   54 1
  59   35   36 1
  60   35   55 1
  61   35   56 1
  62   36   57 1
  63   36   58 1

#	End of record

