#	Name: ASD02408166
#	Creating user name:	WinNT
#	Creation time:	15. 06. 2019 20:21

#	Modifying user name:	WinNT
#	Modification time:	15. 06. 2019 20:21

#	Program:	/corina/corina34_cracker 3.40 0067  02.08.2006

@<TRIPOS>MOLECULE
ASD02408166
  46   48    0    0    0
SMALL
NO_CHARGES


@<TRIPOS>ATOM
   1 C1             0.4106     2.5227    -0.0554 C.3     
   2 C2             0.2021     1.0586     0.2344 C.ar    
   3 C3             0.2201     0.6029     1.5391 C.ar    
   4 C4            -0.0129     0.1720    -0.8045 C.ar    
   5 C5            -0.2042    -1.1708    -0.5387 C.ar    
   6 C6            -0.1800    -1.6275     0.7660 C.ar    
   7 C7             0.0289    -0.7403     1.8050 C.ar    
   8 C8            -0.0392     0.6698    -2.2266 C.3     
   9 C9             1.3677     0.7327    -2.7630 C.2     
  10 N10            1.5645     1.1557    -4.0267 N.am    
  11 N11            2.3555     0.3805    -1.9858 N.2     
  12 C12            3.6258     0.4165    -2.4082 C.2     
  13 C13            3.9026     0.8429    -3.7177 C.2     
  14 C14            2.8111     1.2249    -4.5393 C.2     
  15 N15            4.6469     0.0411    -1.5701 N.pl3   
  16 C16            5.9117     0.7883    -1.5496 C.3     
  17 O17            2.9945     1.6028    -5.6835 O.2     
  18 C18           -0.3891    -3.0915     1.0558 C.3     
  19 C19            6.2145     1.2059    -0.1071 C.3     
  20 C20            6.2016    -0.0327     0.7916 C.3     
  21 C21            4.8136    -0.6764     0.7563 C.3     
  22 C22            4.4929    -1.1118    -0.6724 C.3     
  23 C23            5.2474     0.8956    -4.2070 C.1     
  24 N24            6.3142     0.9373    -4.5952 N.1     
  25 H25            1.4740     2.7177    -0.1944 H       
  26 H26           -0.1302     2.7942    -0.9620 H       
  27 H27            0.0389     3.1151     0.7807 H       
  28 H28            0.3840     1.2961     2.3510 H       
  29 H29           -0.3728    -1.8632    -1.3502 H       
  30 H30            0.0477    -1.0971     2.8242 H       
  31 H31           -0.6314    -0.0104    -2.8388 H       
  32 H32           -0.4837     1.6647    -2.2552 H       
  33 H33            0.8047     1.4121    -4.5724 H       
  34 H34            6.7164     0.1550    -1.9232 H       
  35 H35            5.8219     1.6760    -2.1758 H       
  36 H36            0.5730    -3.6038     1.0512 H       
  37 H37           -0.8565    -3.2052     2.0339 H       
  38 H38           -1.0349    -3.5245     0.2920 H       
  39 H39            7.1964     1.6771    -0.0632 H       
  40 H40            5.4565     1.9109     0.2342 H       
  41 H41            6.9427    -0.7480     0.4349 H       
  42 H42            6.4410     0.2582     1.8144 H       
  43 H43            4.7984    -1.5449     1.4147 H       
  44 H44            4.0688     0.0464     1.0895 H       
  45 H45            3.4681    -1.4799    -0.7209 H       
  46 H46            5.1813    -1.9000    -0.9773 H       
@<TRIPOS>BOND
   1    1    2 1
   2    1   25 1
   3    1   26 1
   4    1   27 1
   5    2    3 ar
   6    2    4 ar
   7    3    7 ar
   8    3   28 1
   9    4    5 ar
  10    4    8 1
  11    5    6 ar
  12    5   29 1
  13    6    7 ar
  14    6   18 1
  15    7   30 1
  16    8    9 1
  17    8   31 1
  18    8   32 1
  19    9   10 1
  20    9   11 2
  21   10   14 am
  22   10   33 1
  23   11   12 1
  24   12   13 2
  25   12   15 1
  26   13   14 1
  27   13   23 1
  28   14   17 2
  29   15   16 1
  30   15   22 1
  31   16   19 1
  32   16   34 1
  33   16   35 1
  34   18   36 1
  35   18   37 1
  36   18   38 1
  37   19   20 1
  38   19   39 1
  39   19   40 1
  40   20   21 1
  41   20   41 1
  42   20   42 1
  43   21   22 1
  44   21   43 1
  45   21   44 1
  46   22   45 1
  47   22   46 1
  48   23   24 3

#	End of record

