#	Name: ASD03180065
#	Creating user name:	WinNT
#	Creation time:	15. 06. 2019 20:33

#	Modifying user name:	WinNT
#	Modification time:	15. 06. 2019 20:33

#	Program:	/corina/corina34_cracker 3.40 0067  02.08.2006

@<TRIPOS>MOLECULE
ASD03180065
  41   43    0    0    0
SMALL
NO_CHARGES


@<TRIPOS>ATOM
   1 C1             1.1318     0.2493    -1.1723 C.ar    
   2 C2             0.5599    -0.1024     0.0365 C.ar    
   3 C3             1.1649     0.2659     1.2245 C.ar    
   4 C4             2.3424     0.9868     1.2070 C.ar    
   5 C5             2.9198     1.3419    -0.0059 C.ar    
   6 C6             2.3098     0.9700    -1.1971 C.ar    
   7 N7             4.1113     2.0720    -0.0273 N.pl3   
   8 N8             5.1451     4.1688    -0.4908 N.2     
   9 C9             4.9386     5.4346    -0.8530 C.2     
  10 C10            4.0979     3.4100    -0.3892 C.2     
  11 S11            2.6569     4.3421    -0.7829 S.3     
  12 C12            3.6526     5.7672    -1.0695 C.2     
  13 C13            6.0443     6.4052    -1.0056 C.2     
  14 S14            5.8843     8.0956    -1.4765 S.3     
  15 C15            7.5780     8.2978    -1.3636 C.2     
  16 N16            8.1402     7.1912    -1.0102 N.2     
  17 C17            7.3557     6.1556    -0.8032 C.2     
  18 C18            8.3108     9.5856    -1.6385 C.3     
  19 C19            7.8764     4.8058    -0.3812 C.3     
  20 C20            2.9326     1.3524    -2.5150 C.3     
  21 C21            3.0004     1.3885     2.5019 C.3     
  22 C22            2.5648     2.8065     2.8769 C.3     
  23 H23            0.6591    -0.0437    -2.0981 H       
  24 H24           -0.3614    -0.6656     0.0531 H       
  25 H25            0.7156    -0.0104     2.1670 H       
  26 H26            4.9477     1.6423     0.2111 H       
  27 H27            3.2927     6.7407    -1.3679 H       
  28 H28            8.3899    10.1624    -0.7170 H       
  29 H29            9.3094     9.3624    -2.0142 H       
  30 H30            7.7632    10.1635    -2.3830 H       
  31 H31            8.1028     4.2108    -1.2660 H       
  32 H32            8.7820     4.9348     0.2115 H       
  33 H33            7.1208     4.2955     0.2162 H       
  34 H34            2.4654     2.2644    -2.8866 H       
  35 H35            4.0005     1.5216    -2.3767 H       
  36 H36            2.7824     0.5479    -3.2349 H       
  37 H37            2.7034     0.6968     3.2902 H       
  38 H38            4.0835     1.3606     2.3831 H       
  39 H39            2.8618     3.4982     2.0886 H       
  40 H40            1.4817     2.8344     2.9957 H       
  41 H41            3.0407     3.0970     3.8135 H       
@<TRIPOS>BOND
   1    1    2 ar
   2    1    6 ar
   3    1   23 1
   4    2    3 ar
   5    2   24 1
   6    3    4 ar
   7    3   25 1
   8    4    5 ar
   9    4   21 1
  10    5    6 ar
  11    5    7 1
  12    6   20 1
  13    7   10 1
  14    7   26 1
  15    8   10 2
  16    8    9 1
  17    9   12 2
  18    9   13 1
  19   10   11 1
  20   11   12 1
  21   12   27 1
  22   13   14 1
  23   13   17 2
  24   14   15 1
  25   15   16 2
  26   15   18 1
  27   16   17 1
  28   17   19 1
  29   18   28 1
  30   18   29 1
  31   18   30 1
  32   19   31 1
  33   19   32 1
  34   19   33 1
  35   20   34 1
  36   20   35 1
  37   20   36 1
  38   21   22 1
  39   21   37 1
  40   21   38 1
  41   22   39 1
  42   22   40 1
  43   22   41 1

#	End of record

