#	Name: ASD01912803
#	Creating user name:	WinNT
#	Creation time:	15. 06. 2019 20:00

#	Modifying user name:	WinNT
#	Modification time:	15. 06. 2019 20:00

#	Program:	/corina/corina34_cracker 3.40 0067  02.08.2006

@<TRIPOS>MOLECULE
ASD01912803
  40   43    0    0    0
SMALL
NO_CHARGES


@<TRIPOS>ATOM
   1 C1            -0.0165     1.3669     0.0096 C.2     
   2 N2             0.0021    -0.0041     0.0020 N.pl3   
   3 C3            -1.2025    -0.6923     0.0091 C.2     
   4 C4            -2.3629    -0.0503     0.0230 C.2     
   5 N5            -2.4359     1.3310     0.0311 N.am    
   6 C6            -1.3020     2.0669     0.0309 C.2     
   7 C7             1.3014     1.7836    -0.0008 C.2     
   8 C8             2.0550     0.6110    -0.0143 C.2     
   9 N9             1.2244    -0.4045    -0.0118 N.2     
  10 O10           -1.3488     3.2836     0.0384 O.2     
  11 C11           -3.6758     1.9626     0.0456 C.ar    
  12 C12            3.5594     0.5248    -0.0295 C.3     
  13 O13            4.1120     1.8427    -0.0282 O.3     
  14 C14            5.4650     1.9433    -0.0410 C.ar    
  15 C15            6.0614     3.1974    -0.0404 C.ar    
  16 C16            7.4427     3.2863    -0.0535 C.ar    
  17 C17            8.1815     2.1116    -0.0669 C.ar    
  18 C18            7.5216     0.8985    -0.0666 C.ar    
  19 N19            6.2034     0.8458    -0.0485 N.ar    
  20 N20           -3.7599     3.2852    -0.0518 N.ar    
  21 C21           -4.8489     1.2163     0.1569 C.ar    
  22 C22           -6.0578     1.8868     0.1667 C.ar    
  23 N23           -6.0660     3.2078     0.0708 N.ar    
  24 C24           -4.9366     3.8888    -0.0388 C.ar    
  25 O25           -4.9868     5.2390    -0.1346 O.3     
  26 C26           -6.2814     5.8435    -0.1100 C.3     
  27 H27           -1.1951    -1.7722     0.0029 H       
  28 H28           -3.2784    -0.6232     0.0277 H       
  29 H29            1.6684     2.7994     0.0012 H       
  30 H30            3.9015    -0.0135     0.8543 H       
  31 H31            3.8840    -0.0043    -0.9255 H       
  32 H32            5.4556     4.0915    -0.0302 H       
  33 H33            7.9343     4.2480    -0.0538 H       
  34 H34            9.2609     2.1457    -0.0777 H       
  35 H35            8.0918    -0.0186    -0.0774 H       
  36 H36           -4.8136     0.1395     0.2334 H       
  37 H37           -6.9851     1.3397     0.2512 H       
  38 H38           -6.8734     5.4685    -0.9449 H       
  39 H39           -6.7794     5.5978     0.8279 H       
  40 H40           -6.1789     6.9254    -0.1944 H       
@<TRIPOS>BOND
   1    1    2 1
   2    1    7 2
   3    1    6 1
   4    2    3 1
   5    2    9 1
   6    3    4 2
   7    3   27 1
   8    4    5 1
   9    4   28 1
  10    5    6 am
  11    5   11 1
  12    6   10 2
  13    7    8 1
  14    7   29 1
  15    8    9 2
  16    8   12 1
  17   11   21 ar
  18   11   20 ar
  19   12   13 1
  20   12   30 1
  21   12   31 1
  22   13   14 1
  23   14   15 ar
  24   14   19 ar
  25   15   16 ar
  26   15   32 1
  27   16   17 ar
  28   16   33 1
  29   17   18 ar
  30   17   34 1
  31   18   19 ar
  32   18   35 1
  33   20   24 ar
  34   21   22 ar
  35   21   36 1
  36   22   23 ar
  37   22   37 1
  38   23   24 ar
  39   24   25 1
  40   25   26 1
  41   26   38 1
  42   26   39 1
  43   26   40 1

#	End of record

