#	Name: ASD02508229
#	Creating user name:	WinNT
#	Creation time:	15. 06. 2019 20:24

#	Modifying user name:	WinNT
#	Modification time:	15. 06. 2019 20:24

#	Program:	/corina/corina34_cracker 3.40 0067  02.08.2006

@<TRIPOS>MOLECULE
ASD02508229
  36   38    0    0    0
SMALL
NO_CHARGES


@<TRIPOS>ATOM
   1 C1             0.2483     0.6124    -0.3445 C.ar    
   2 C2             0.0012    -0.7454    -0.5455 C.ar    
   3 C3            -1.2922    -1.2321    -0.4367 C.ar    
   4 C4            -2.3284    -0.3718    -0.1303 C.ar    
   5 C5            -2.0822     0.9756     0.0686 C.ar    
   6 C6            -0.7959     1.4688    -0.0324 C.ar    
   7 S7            -3.9717    -0.9926     0.0075 S.o2    
   8 N8            -4.2470    -1.2990     1.6115 N.am    
   9 C9            -3.4669    -2.2413     2.2868 C.ar    
  10 N10            1.6196     0.7978    -0.5178 N.am    
  11 C11            2.1572    -0.4033    -0.8091 C.2     
  12 O12            1.1896    -1.3335    -0.8270 O.3     
  13 O13           -4.8360     0.0769    -0.3508 O.2     
  14 O14           -3.9810    -2.2528    -0.6490 O.2     
  15 C15            2.3436     2.0663    -0.4041 C.3     
  16 O16            3.3359    -0.6120    -1.0227 O.2     
  17 C17           -2.9428    -1.9426     3.5382 C.ar    
  18 C18           -3.2187    -3.4803     1.7107 C.ar    
  19 C19           -2.4476    -4.4101     2.3807 C.ar    
  20 C20           -1.9226    -4.1079     3.6247 C.ar    
  21 C21           -2.1726    -2.8759     4.2035 C.ar    
  22 Cl22          -0.9538    -5.2788     4.4639 Cl      
  23 C23           -1.5990    -2.5504     5.5585 C.3     
  24 H24           -1.4894    -2.2825    -0.5916 H       
  25 H25           -2.8975     1.6425     0.3072 H       
  26 H26           -0.6055     2.5204     0.1235 H       
  27 H27           -4.9499    -0.8243     2.0822 H       
  28 H28            2.6734     2.2054     0.6255 H       
  29 H29            3.2106     2.0503    -1.0644 H       
  30 H30            1.6852     2.8872    -0.6887 H       
  31 H31           -3.1374    -0.9812     3.9902 H       
  32 H32           -3.6285    -3.7169     0.7399 H       
  33 H33           -2.2545    -5.3739     1.9333 H       
  34 H34           -0.6184    -2.0904     5.4370 H       
  35 H35           -2.2629    -1.8590     6.0776 H       
  36 H36           -1.5010    -3.4664     6.1411 H       
@<TRIPOS>BOND
   1    1    2 ar
   2    1   10 1
   3    1    6 ar
   4    2    3 ar
   5    2   12 1
   6    3    4 ar
   7    3   24 1
   8    4    5 ar
   9    4    7 1
  10    5    6 ar
  11    5   25 1
  12    6   26 1
  13    7    8 am
  14    7   13 2
  15    7   14 2
  16    8    9 1
  17    8   27 1
  18    9   17 ar
  19    9   18 ar
  20   10   11 am
  21   10   15 1
  22   11   12 1
  23   11   16 2
  24   15   28 1
  25   15   29 1
  26   15   30 1
  27   17   21 ar
  28   17   31 1
  29   18   19 ar
  30   18   32 1
  31   19   20 ar
  32   19   33 1
  33   20   21 ar
  34   20   22 1
  35   21   23 1
  36   23   34 1
  37   23   35 1
  38   23   36 1

#	End of record

