#	Name: ASD02198294
#	Creating user name:	WinNT
#	Creation time:	15. 06. 2019 20:19

#	Modifying user name:	WinNT
#	Modification time:	15. 06. 2019 20:19

#	Program:	/corina/corina34_cracker 3.40 0067  02.08.2006

@<TRIPOS>MOLECULE
ASD02198294
  47   50    0    0    0
SMALL
NO_CHARGES


@<TRIPOS>ATOM
   1 C1            -0.0719     1.3615     0.0244 C.2     
   2 C2            -0.0689    -0.0188     0.0675 C.2     
   3 S3             1.6004     1.8966    -0.1201 S.3     
   4 C4             2.1377     0.2747    -0.1102 C.2     
   5 N5             1.1319    -0.5451    -0.0077 N.2     
   6 N6            -1.2241    -0.7770     0.1799 N.pl3   
   7 C7            -1.2087     2.1923     0.0798 C.2     
   8 O8            -2.3247     1.7011     0.0578 O.2     
   9 C9            -1.0486     3.6585     0.1647 C.2     
  10 N10            3.4559    -0.1126    -0.1992 N.pl3   
  11 C11            3.8041    -1.5355    -0.1811 C.3     
  12 C12           -2.0591     4.5961     0.1168 C.2     
  13 N13           -1.4870     5.8104     0.2274 N.pl3   
  14 N14           -0.1033     5.6377     0.3461 N.2     
  15 C15            0.1672     4.3612     0.3161 C.2     
  16 C16           -2.1625     7.0383     0.2237 C.ar    
  17 C17           -3.3425     7.1852     0.9406 C.ar    
  18 C18           -1.6502     8.1120    -0.4922 C.ar    
  19 C19           -2.3183     9.3208    -0.4939 C.ar    
  20 C20           -3.4963     9.4624     0.2164 C.ar    
  21 C21           -4.0060     8.3966     0.9350 C.ar    
  22 C22            5.1514    -1.7575    -0.8905 C.3     
  23 C23            6.1063    -2.3654     0.1575 C.3     
  24 C24            5.1628    -3.0219     1.1956 C.3     
  25 C25            3.9873    -2.0162     1.2733 C.3     
  26 C26           -3.5320     4.3138    -0.0319 C.3     
  27 H27           -2.0882    -0.3395     0.2325 H       
  28 H28           -1.1683    -1.7451     0.2060 H       
  29 H29            4.1540     0.5567    -0.2738 H       
  30 H30            3.0235    -2.1169    -0.6717 H       
  31 H31            1.1502     3.9195     0.3867 H       
  32 H32           -3.7413     6.3531     1.5017 H       
  33 H33           -0.7300     8.0021    -1.0468 H       
  34 H34           -1.9201    10.1565    -1.0502 H       
  35 H35           -4.0169    10.4086     0.2136 H       
  36 H36           -4.9264     8.5101     1.4885 H       
  37 H37            5.0248    -2.4473    -1.7249 H       
  38 H38            5.5461    -0.8066    -1.2482 H       
  39 H39            6.7491    -3.1161    -0.3021 H       
  40 H40            6.7051    -1.5845     0.6264 H       
  41 H41            4.8170    -3.9937     0.8432 H       
  42 H42            5.6569    -3.1140     2.1628 H       
  43 H43            4.2439    -1.1790     1.9223 H       
  44 H44            3.0838    -2.5121     1.6279 H       
  45 H45           -3.9632     4.1083     0.9479 H       
  46 H46           -4.0255     5.1805    -0.4715 H       
  47 H47           -3.6725     3.4484    -0.6795 H       
@<TRIPOS>BOND
   1    1    2 2
   2    1    3 1
   3    1    7 1
   4    2    6 1
   5    2    5 1
   6    3    4 1
   7    4    5 2
   8    4   10 1
   9    6   27 1
  10    6   28 1
  11    7    8 2
  12    7    9 1
  13    9   12 2
  14    9   15 1
  15   10   11 1
  16   10   29 1
  17   11   22 1
  18   11   25 1
  19   11   30 1
  20   12   13 1
  21   12   26 1
  22   13   14 1
  23   13   16 1
  24   14   15 2
  25   15   31 1
  26   16   17 ar
  27   16   18 ar
  28   17   21 ar
  29   17   32 1
  30   18   19 ar
  31   18   33 1
  32   19   20 ar
  33   19   34 1
  34   20   21 ar
  35   20   35 1
  36   21   36 1
  37   22   23 1
  38   22   37 1
  39   22   38 1
  40   23   24 1
  41   23   39 1
  42   23   40 1
  43   24   25 1
  44   24   41 1
  45   24   42 1
  46   25   43 1
  47   25   44 1
  48   26   45 1
  49   26   46 1
  50   26   47 1

#	End of record

