#	Name: ASD00431145
#	Creating user name:	WinNT
#	Creation time:	15. 06. 2019 18:35

#	Modifying user name:	WinNT
#	Modification time:	15. 06. 2019 18:35

#	Program:	/corina/corina34_cracker 3.40 0067  02.08.2006

@<TRIPOS>MOLECULE
ASD00431145
  50   52    0    0    0
SMALL
NO_CHARGES


@<TRIPOS>ATOM
   1 N1             0.0424     1.2372     0.1898 N.am    
   2 C2             0.1480    -0.1059     0.1535 C.2     
   3 O3             1.2376    -0.6265     0.0114 O.2     
   4 N4            -0.9542    -0.8721     0.2749 N.am    
   5 C5            -0.8394    -2.3321     0.2354 C.3     
   6 C6             1.2404     2.0700     0.0580 C.3     
   7 C7             1.5540     2.2813    -1.4246 C.3     
   8 O8            -0.1308     4.1247     0.6730 O.3     
   9 N9            -0.0320     5.1564     1.2957 N.2     
  10 C10            1.1583     5.2757     1.8369 C.2     
  11 C11            1.8805     4.1053     1.4626 C.2     
  12 C12            0.9995     3.4043     0.7156 C.2     
  13 S13            3.2543     6.5311     3.3791 S.3     
  14 C14            2.8343     8.0400     4.0641 C.2     
  15 N15            1.6132     8.3508     3.7545 N.2     
  16 C16            0.9482     7.4966     3.0081 C.2     
  17 C17            1.6493     6.3956     2.6651 C.2     
  18 O18            3.6582     8.8018     4.8222 O.3     
  19 C19            3.2371    10.0475     5.1685 C.ar    
  20 C20            3.9673    10.7991     6.0796 C.ar    
  21 C21            3.5390    12.0651     6.4307 C.ar    
  22 C22            2.3799    12.5846     5.8730 C.ar    
  23 C23            1.6506    11.8334     4.9635 C.ar    
  24 C24            2.0815    10.5697     4.6076 C.ar    
  25 O25            1.9584    13.8303     6.2185 O.3     
  26 C26            2.6783    14.4932     7.2598 C.3     
  27 C27            3.7735    15.3675     6.6459 C.3     
  28 C28            1.7176    15.3699     8.0656 C.3     
  29 Cl29           5.4174    10.1483     6.7776 Cl      
  30 H30           -0.8273     1.6525     0.2993 H       
  31 H31           -1.8234    -0.4568     0.3883 H       
  32 H32           -0.1945    -2.6679     1.0475 H       
  33 H33           -1.8278    -2.7774     0.3484 H       
  34 H34           -0.4104    -2.6371    -0.7190 H       
  35 H35            2.0826     1.5739     0.5403 H       
  36 H36            2.4453     2.9009    -1.5227 H       
  37 H37            1.7282     1.3162    -1.9003 H       
  38 H38            0.7117     2.7774    -1.9070 H       
  39 H39            2.8962     3.8405     1.7168 H       
  40 H40           -0.0725     7.6618     2.6964 H       
  41 H41            4.1064    12.6500     7.1396 H       
  42 H42            0.7479    12.2379     4.5300 H       
  43 H43            1.5158     9.9870     3.8957 H       
  44 H44            3.1315    13.7514     7.9173 H       
  45 H45            4.3226    15.8732     7.4402 H       
  46 H46            4.4579    14.7429     6.0718 H       
  47 H47            3.3203    16.1094     5.9883 H       
  48 H48            0.9374    14.7471     8.5030 H       
  49 H49            2.2668    15.8756     8.8599 H       
  50 H50            1.2644    16.1118     7.4081 H       
@<TRIPOS>BOND
   1    1    2 am
   2    1    6 1
   3    1   30 1
   4    2    3 2
   5    2    4 am
   6    4    5 1
   7    4   31 1
   8    5   32 1
   9    5   33 1
  10    5   34 1
  11    6    7 1
  12    6   12 1
  13    6   35 1
  14    7   36 1
  15    7   37 1
  16    7   38 1
  17    8    9 1
  18    8   12 1
  19    9   10 2
  20   10   11 1
  21   10   17 1
  22   11   12 2
  23   11   39 1
  24   13   14 1
  25   13   17 1
  26   14   15 2
  27   14   18 1
  28   15   16 1
  29   16   17 2
  30   16   40 1
  31   18   19 1
  32   19   20 ar
  33   19   24 ar
  34   20   21 ar
  35   20   29 1
  36   21   22 ar
  37   21   41 1
  38   22   23 ar
  39   22   25 1
  40   23   24 ar
  41   23   42 1
  42   24   43 1
  43   25   26 1
  44   26   27 1
  45   26   28 1
  46   26   44 1
  47   27   45 1
  48   27   46 1
  49   27   47 1
  50   28   48 1
  51   28   49 1
  52   28   50 1

#	End of record

