#	Name: ASD05430629
#	Creating user name:	WinNT
#	Creation time:	15. 06. 2019 21:00

#	Modifying user name:	WinNT
#	Modification time:	15. 06. 2019 21:00

#	Program:	/corina/corina34_cracker 3.40 0067  02.08.2006

@<TRIPOS>MOLECULE
ASD05430629
  41   42    0    0    0
SMALL
NO_CHARGES


@<TRIPOS>ATOM
   1 C1            -0.0168     1.3884     0.0097 C.ar    
   2 C2             0.0021    -0.0041     0.0020 C.ar    
   3 C3            -1.1916    -0.7102     0.0096 C.ar    
   4 C4            -2.3954    -0.0318     0.0247 C.ar    
   5 C5            -2.4137     1.3509     0.0323 C.ar    
   6 C6            -1.2281     2.0614     0.0306 C.ar    
   7 C7            -3.7297     2.0850     0.0487 C.3     
   8 C8            -4.5383     1.7102    -1.1949 C.3     
   9 C9            -4.5146     1.6968     1.3034 C.3     
  10 N10            1.2260    -0.6911    -0.0138 N.pl3   
  11 C11            2.2653    -0.4693    -0.8592 C.2     
  12 C12            1.6000    -1.7086     0.8251 C.2     
  13 C13            2.8443    -2.0752     0.4630 C.2     
  14 N14            3.2254    -1.3036    -0.5656 N.2     
  15 C15            3.6679    -3.1613     1.1057 C.3     
  16 C16            4.1110    -4.1643     0.0387 C.3     
  17 O17            1.1502     2.0857     0.0023 O.3     
  18 C18            1.0540     3.5115     0.0109 C.3     
  19 C19            2.4588     4.1174     0.0007 C.3     
  20 H20           -1.1803    -1.7902     0.0033 H       
  21 H21           -3.3242    -0.5829     0.0302 H       
  22 H22           -1.2458     3.1412     0.0366 H       
  23 H23           -3.5464     3.1595     0.0528 H       
  24 H24           -4.7216     0.6358    -1.1989 H       
  25 H25           -5.4902     2.2412    -1.1830 H       
  26 H26           -3.9792     1.9868    -2.0888 H       
  27 H27           -5.4664     2.2278     1.3153 H       
  28 H28           -4.6979     0.6223     1.2994 H       
  29 H29           -3.9385     1.9638     2.1894 H       
  30 H30            2.2927     0.2727    -1.6434 H       
  31 H31            1.0102    -2.1343     1.6234 H       
  32 H32            4.5463    -2.7205     1.5771 H       
  33 H33            3.0695    -3.6732     1.8594 H       
  34 H34            3.2326    -4.6052    -0.4327 H       
  35 H35            4.7094    -3.6524    -0.7150 H       
  36 H36            4.7067    -4.9500     0.5035 H       
  37 H37            0.5084     3.8441    -0.8722 H       
  38 H38            0.5254     3.8346     0.9077 H       
  39 H39            2.3855     5.2049     0.0072 H       
  40 H40            3.0044     3.7848     0.8837 H       
  41 H41            2.9874     3.7943    -0.8961 H       
@<TRIPOS>BOND
   1    1    2 ar
   2    1   17 1
   3    1    6 ar
   4    2    3 ar
   5    2   10 1
   6    3    4 ar
   7    3   20 1
   8    4    5 ar
   9    4   21 1
  10    5    6 ar
  11    5    7 1
  12    6   22 1
  13    7    8 1
  14    7    9 1
  15    7   23 1
  16    8   24 1
  17    8   25 1
  18    8   26 1
  19    9   27 1
  20    9   28 1
  21    9   29 1
  22   10   11 1
  23   10   12 1
  24   11   14 2
  25   11   30 1
  26   12   13 2
  27   12   31 1
  28   13   14 1
  29   13   15 1
  30   15   16 1
  31   15   32 1
  32   15   33 1
  33   16   34 1
  34   16   35 1
  35   16   36 1
  36   17   18 1
  37   18   19 1
  38   18   37 1
  39   18   38 1
  40   19   39 1
  41   19   40 1
  42   19   41 1

#	End of record

