#	Name: ASD01910801
#	Creating user name:	WinNT
#	Creation time:	15. 06. 2019 19:56

#	Modifying user name:	WinNT
#	Modification time:	15. 06. 2019 19:56

#	Program:	/corina/corina34_cracker 3.40 0067  02.08.2006

@<TRIPOS>MOLECULE
ASD01910801
  51   54    0    0    0
SMALL
NO_CHARGES


@<TRIPOS>ATOM
   1 C1            -0.0910     1.7007     0.3189 C.ar    
   2 C2            -0.0066     0.3149     0.3338 C.ar    
   3 C3            -1.1790    -0.4184     0.2927 C.ar    
   4 C4            -2.3956     0.2536     0.2382 C.ar    
   5 N5            -2.4344     1.5772     0.2252 N.ar    
   6 C6            -1.3328     2.3021     0.2698 C.ar    
   7 N7            -3.5813    -0.4707     0.1964 N.3     
   8 C8            -4.7440     0.4254     0.1422 C.3     
   9 C9            -6.0131    -0.4029    -0.0847 C.3     
  10 N10           -6.0804    -1.4472     0.9488 N.am    
  11 C11           -4.8989    -2.2983     1.1562 C.3     
  12 C12           -3.6737    -1.3953     1.3342 C.3     
  13 C13           -7.1954    -1.6199     1.6861 C.2     
  14 C14           -7.2890    -2.7539     2.6303 C.ar    
  15 O15           -8.1239    -0.8435     1.5748 O.2     
  16 C16           -7.9050    -2.5920     3.8729 C.ar    
  17 N17           -7.9928    -3.5963     4.7211 N.ar    
  18 C18           -7.5103    -4.7901     4.4436 C.ar    
  19 C19           -6.8774    -5.0416     3.2223 C.ar    
  20 C20           -6.7674    -4.0048     2.2898 C.ar    
  21 C21           -6.3546    -6.3421     2.9287 C.1     
  22 C22           -5.9261    -7.4082     2.6879 C.1     
  23 C23           -5.4033    -8.7086     2.3943 C.ar    
  24 C24           -4.7721    -8.9519     1.1716 C.ar    
  25 C25           -4.2707   -10.2068     0.8959 C.ar    
  26 C26           -4.3914   -11.2236     1.8267 C.ar    
  27 C27           -5.0156   -10.9903     3.0394 C.ar    
  28 C28           -5.5168    -9.7389     3.3314 C.ar    
  29 C29            1.1600     2.5399     0.3623 C.3     
  30 F30            1.6001     2.7887    -0.9422 F       
  31 F31            0.8853     3.7537     1.0012 F       
  32 F32            2.1559     1.8563     1.0680 F       
  33 H33            0.9527    -0.1794     0.3762 H       
  34 H34           -1.1499    -1.4980     0.3024 H       
  35 H35           -1.4030     3.3797     0.2575 H       
  36 H36           -4.8281     0.9694     1.0830 H       
  37 H37           -4.6200     1.1329    -0.6776 H       
  38 H38           -6.8890     0.2416    -0.0116 H       
  39 H39           -5.9768    -0.8657    -1.0709 H       
  40 H40           -5.0383    -2.9068     2.0497 H       
  41 H41           -4.7556    -2.9432     0.2892 H       
  42 H42           -2.7735    -2.0083     1.3789 H       
  43 H43           -3.7728    -0.8259     2.2584 H       
  44 H44           -8.3149    -1.6299     4.1426 H       
  45 H45           -7.6045    -5.5849     5.1687 H       
  46 H46           -6.2850    -4.1643     1.3367 H       
  47 H47           -4.6775    -8.1593     0.4441 H       
  48 H48           -3.7829   -10.3964    -0.0488 H       
  49 H49           -3.9968   -12.2043     1.6054 H       
  50 H50           -5.1065   -11.7888     3.7609 H       
  51 H51           -6.0034    -9.5581     4.2784 H       
@<TRIPOS>BOND
   1    1    2 ar
   2    1   29 1
   3    1    6 ar
   4    2    3 ar
   5    2   33 1
   6    3    4 ar
   7    3   34 1
   8    4    5 ar
   9    4    7 1
  10    5    6 ar
  11    6   35 1
  12    7    8 1
  13    7   12 1
  14    8    9 1
  15    8   36 1
  16    8   37 1
  17    9   10 1
  18    9   38 1
  19    9   39 1
  20   10   11 1
  21   10   13 am
  22   11   12 1
  23   11   40 1
  24   11   41 1
  25   12   42 1
  26   12   43 1
  27   13   14 1
  28   13   15 2
  29   14   16 ar
  30   14   20 ar
  31   16   17 ar
  32   16   44 1
  33   17   18 ar
  34   18   19 ar
  35   18   45 1
  36   19   20 ar
  37   19   21 1
  38   20   46 1
  39   21   22 3
  40   22   23 1
  41   23   24 ar
  42   23   28 ar
  43   24   25 ar
  44   24   47 1
  45   25   26 ar
  46   25   48 1
  47   26   27 ar
  48   26   49 1
  49   27   28 ar
  50   27   50 1
  51   28   51 1
  52   29   30 1
  53   29   31 1
  54   29   32 1

#	End of record

