#	Name: ASD07930816
#	Creating user name:	WinNT
#	Creation time:	15. 06. 2019 21:13

#	Modifying user name:	WinNT
#	Modification time:	15. 06. 2019 21:13

#	Program:	/corina/corina34_cracker 3.40 0067  02.08.2006

@<TRIPOS>MOLECULE
ASD07930816
  48   52    0    0    0
SMALL
NO_CHARGES


@<TRIPOS>ATOM
   1 S1            -0.0218     1.7568     0.0117 S.3     
   2 C2             0.0021    -0.0041     0.0020 C.2     
   3 N3             1.0039    -0.6777    -0.4129 N.2     
   4 C4             2.2686    -0.2447    -0.9571 C.3     
   5 C5             2.4022     1.2744    -1.1331 C.3     
   6 C6             1.7645     2.0590    -0.0037 C.3     
   7 O7             1.9952     0.3585    -3.2710 O.3     
   8 C8             2.3528    -0.7412    -2.4245 C.3     
   9 C9             1.6712     1.5094    -2.4705 C.3     
  10 N10           -1.1039    -0.6814     0.4608 N.pl3   
  11 C11            2.1831     2.7861    -3.1406 C.3     
  12 C12            3.4090    -0.8012    -0.1442 C.ar    
  13 C13            4.7174    -0.5190    -0.5042 C.ar    
  14 C14            5.7707    -1.0270     0.2391 C.ar    
  15 C15            5.5220    -1.8170     1.3421 C.ar    
  16 C16            4.2064    -2.1044     1.7090 C.ar    
  17 C17            3.1488    -1.5856     0.9597 C.ar    
  18 C18            4.1754    -4.2184     4.6734 C.2     
  19 N19            2.8878    -4.0791     4.4423 N.2     
  20 C20            2.7081    -3.3145     3.3654 C.2     
  21 C21            3.9337    -2.9509     2.8898 C.2     
  22 N22            4.8664    -3.5252     3.7209 N.pl3   
  23 C23            4.7740    -4.9905     5.7822 C.ar    
  24 C24            3.9534    -5.6536     6.6982 C.ar    
  25 N25            6.0973    -5.0616     5.9090 N.ar    
  26 N26            4.4938    -6.3413     7.6860 N.ar    
  27 C27            5.8091    -6.4034     7.8095 C.ar    
  28 C28            6.6267    -5.7526     6.9012 C.ar    
  29 F29            4.9666     0.2539    -1.5838 F       
  30 H30            3.4538     1.5459    -1.2250 H       
  31 H31            1.9515     3.1229    -0.1499 H       
  32 H32            2.1946     1.7422     0.9464 H       
  33 H33            3.3693    -1.0652    -2.6480 H       
  34 H34            1.6576    -1.5668    -2.5766 H       
  35 H35            0.5948     1.5692    -2.3096 H       
  36 H36           -1.8759    -0.1890     0.7809 H       
  37 H37           -1.1118    -1.6513     0.4642 H       
  38 H38            3.2520     2.6925    -3.3320 H       
  39 H39            1.6571     2.9376    -4.0833 H       
  40 H40            2.0046     3.6377    -2.4841 H       
  41 H41            6.7883    -0.8043    -0.0460 H       
  42 H42            6.3438    -2.2128     1.9205 H       
  43 H43            2.1289    -1.8015     1.2416 H       
  44 H44            1.7556    -3.0318     2.9420 H       
  45 H45            5.8306    -3.4519     3.6454 H       
  46 H46            2.8792    -5.6030     6.5981 H       
  47 H47            6.2472    -6.9675     8.6195 H       
  48 H48            7.7001    -5.8107     7.0046 H       
@<TRIPOS>BOND
   1    1    2 1
   2    1    6 1
   3    2    3 2
   4    2   10 1
   5    3    4 1
   6    4    8 1
   7    4   12 1
   8    4    5 1
   9    5    6 1
  10    5    9 1
  11    5   30 1
  12    6   31 1
  13    6   32 1
  14    7    8 1
  15    7    9 1
  16    8   33 1
  17    8   34 1
  18    9   11 1
  19    9   35 1
  20   10   36 1
  21   10   37 1
  22   11   38 1
  23   11   39 1
  24   11   40 1
  25   12   13 ar
  26   12   17 ar
  27   13   14 ar
  28   13   29 1
  29   14   15 ar
  30   14   41 1
  31   15   16 ar
  32   15   42 1
  33   16   17 ar
  34   16   21 1
  35   17   43 1
  36   18   19 2
  37   18   22 1
  38   18   23 1
  39   19   20 1
  40   20   21 2
  41   20   44 1
  42   21   22 1
  43   22   45 1
  44   23   24 ar
  45   23   25 ar
  46   24   26 ar
  47   24   46 1
  48   25   28 ar
  49   26   27 ar
  50   27   28 ar
  51   27   47 1
  52   28   48 1

#	End of record

