#	Name: ASD01900793
#	Creating user name:	WinNT
#	Creation time:	15. 06. 2019 19:52

#	Modifying user name:	WinNT
#	Modification time:	15. 06. 2019 19:52

#	Program:	/corina/corina34_cracker 3.40 0067  02.08.2006

@<TRIPOS>MOLECULE
ASD01900793
  29   31    0    0    0
SMALL
NO_CHARGES


@<TRIPOS>ATOM
   1 C1            -0.0172     1.3802     0.0042 C.ar    
   2 N2             0.0021    -0.0041     0.0020 N.pl3   
   3 C3            -1.1988    -0.7232     0.1156 C.2     
   4 N4             1.1305     2.0425     0.0028 N.ar    
   5 N5            -1.1828     2.0101     0.0020 N.ar    
   6 C6            -1.2404     3.3334     0.0035 C.ar    
   7 C7            -0.0654     4.0610     0.0074 C.ar    
   8 C8             1.1456     3.3696     0.0044 C.ar    
   9 N9            -2.3557    -0.1279     0.3226 N.2     
  10 C10           -3.4064    -0.8931     0.4117 C.2     
  11 S11           -2.9162    -2.5736     0.2160 S.3     
  12 C12           -1.2425    -2.0594     0.0149 C.2     
  13 C13           -4.7906    -0.4252     0.6416 C.2     
  14 C14           -5.9044    -1.2117     0.7380 C.2     
  15 C15           -5.2019     0.9137     0.8076 C.2     
  16 N16           -6.4956     0.9207     0.9879 N.2     
  17 N17           -6.9591    -0.3997     0.9483 N.pl3   
  18 O18            2.3214     4.0433     0.0084 O.3     
  19 C19            3.5173     3.2611     0.0049 C.3     
  20 H20            0.8451    -0.4772    -0.0780 H       
  21 H21           -2.1952     3.8382     0.0014 H       
  22 H22           -0.0847     5.1408     0.0087 H       
  23 H23           -0.3969    -2.7093    -0.1552 H       
  24 H24           -5.9339    -2.2885     0.6595 H       
  25 H25           -4.5593     1.7815     0.7892 H       
  26 H26           -7.8811    -0.6817     1.0545 H       
  27 H27            3.5397     2.6276     0.8916 H       
  28 H28            3.5405     2.6368    -0.8883 H       
  29 H29            4.3839     3.9223     0.0087 H       
@<TRIPOS>BOND
   1    1    2 1
   2    1    4 ar
   3    1    5 ar
   4    2    3 1
   5    2   20 1
   6    3    9 1
   7    3   12 2
   8    4    8 ar
   9    5    6 ar
  10    6    7 ar
  11    6   21 1
  12    7    8 ar
  13    7   22 1
  14    8   18 1
  15    9   10 2
  16   10   11 1
  17   10   13 1
  18   11   12 1
  19   12   23 1
  20   13   14 2
  21   13   15 1
  22   14   17 1
  23   14   24 1
  24   15   16 2
  25   15   25 1
  26   16   17 1
  27   17   26 1
  28   18   19 1
  29   19   27 1
  30   19   28 1
  31   19   29 1

#	End of record

