#	Name: ASD04590437
#	Creating user name:	WinNT
#	Creation time:	15. 06. 2019 20:50

#	Modifying user name:	WinNT
#	Modification time:	15. 06. 2019 20:50

#	Program:	/corina/corina34_cracker 3.40 0067  02.08.2006

@<TRIPOS>MOLECULE
ASD04590437
  55   59    0    0    0
SMALL
NO_CHARGES


@<TRIPOS>ATOM
   1 C1            -0.0167     1.3832     0.0096 C.ar    
   2 C2             0.0021    -0.0041     0.0020 C.ar    
   3 C3             2.4020     0.0223    -0.0203 C.ar    
   4 C4             2.3769     1.4283    -0.0129 C.ar    
   5 C5             1.1624     2.0986     0.0022 C.ar    
   6 N6             3.7040    -0.3552    -0.0352 N.2     
   7 C7             4.4709     0.7083    -0.0376 C.2     
   8 N8             3.6969     1.8375    -0.0242 N.pl3   
   9 C9             5.9482     0.6906    -0.0530 C.2     
  10 C10            6.7656    -0.4631    -0.0680 C.2     
  11 C11            8.0578    -0.0540    -0.0790 C.2     
  12 N12            8.0646     1.3050    -0.0714 N.pl3   
  13 N13            6.7360     1.7480    -0.0609 N.2     
  14 N14            6.3187    -1.7945    -0.0702 N.am    
  15 C15            7.2106    -2.8048    -0.0852 C.2     
  16 O16            8.4027    -2.5634    -0.0969 O.2     
  17 C17            6.7416    -4.2019    -0.0876 C.2     
  18 C18            1.1969    -0.6870    -0.0126 C.ar    
  19 C19            7.5093    -5.3294    -0.1019 C.2     
  20 C20           -1.2962    -0.7693     0.0103 C.3     
  21 N21           -1.7312    -1.0105    -1.3719 N.3     
  22 C22           -2.8597    -1.9518    -1.4124 C.3     
  23 C23           -0.6167    -1.4976    -2.1976 C.3     
  24 C24           -1.0980    -1.6784    -3.6397 C.3     
  25 O25           -2.2146    -2.5718    -3.6558 O.3     
  26 C26           -3.3186    -2.1280    -2.8624 C.3     
  27 O27            6.6984    -6.3920    -0.0988 O.3     
  28 C28            5.4112    -6.0120    -0.0828 C.2     
  29 C29            5.3486    -4.6717    -0.0685 C.2     
  30 C30            4.2256    -6.9422    -0.0757 C.3     
  31 C31            9.0157    -5.3702    -0.1189 C.3     
  32 F32            9.4965    -5.3896     1.1948 F       
  33 F33            9.4435    -6.5213    -0.7891 F       
  34 F34            9.5054    -4.2376    -0.7781 F       
  35 H35           -0.9614     1.9066     0.0169 H       
  36 H36            1.1403     3.1784     0.0079 H       
  37 H37            4.0155     2.7537    -0.0234 H       
  38 H38            8.9275    -0.6942    -0.0916 H       
  39 H39            8.8529     1.8702    -0.0763 H       
  40 H40            5.3680    -1.9870    -0.0609 H       
  41 H41            1.2037    -1.7669    -0.0177 H       
  42 H42           -1.1524    -1.7232     0.5176 H       
  43 H43           -2.0561    -0.1898     0.5345 H       
  44 H44           -2.5450    -2.9149    -1.0107 H       
  45 H45           -3.6828    -1.5591    -0.8154 H       
  46 H46            0.1976    -0.7734    -2.1738 H       
  47 H47           -0.2660    -2.4535    -1.8084 H       
  48 H48           -1.3984    -0.7129    -4.0469 H       
  49 H49           -0.2909    -2.0935    -4.2434 H       
  50 H50           -4.1175    -2.8683    -2.9039 H       
  51 H51           -3.6836    -1.1756    -3.2469 H       
  52 H52            4.4570    -4.0625    -0.0540 H       
  53 H53            4.5740    -7.9750    -0.0850 H       
  54 H54            3.6319    -6.7672     0.8215 H       
  55 H55            3.6134    -6.7573    -0.9583 H       
@<TRIPOS>BOND
   1    1    2 ar
   2    1    5 ar
   3    1   35 1
   4    2   18 ar
   5    2   20 1
   6    3    4 ar
   7    3    6 1
   8    3   18 ar
   9    4    5 ar
  10    4    8 1
  11    5   36 1
  12    6    7 2
  13    7    8 1
  14    7    9 1
  15    8   37 1
  16    9   10 1
  17    9   13 2
  18   10   11 2
  19   10   14 1
  20   11   12 1
  21   11   38 1
  22   12   13 1
  23   12   39 1
  24   14   15 am
  25   14   40 1
  26   15   16 2
  27   15   17 1
  28   17   19 2
  29   17   29 1
  30   18   41 1
  31   19   27 1
  32   19   31 1
  33   20   21 1
  34   20   42 1
  35   20   43 1
  36   21   22 1
  37   21   23 1
  38   22   26 1
  39   22   44 1
  40   22   45 1
  41   23   24 1
  42   23   46 1
  43   23   47 1
  44   24   25 1
  45   24   48 1
  46   24   49 1
  47   25   26 1
  48   26   50 1
  49   26   51 1
  50   27   28 1
  51   28   29 2
  52   28   30 1
  53   29   52 1
  54   30   53 1
  55   30   54 1
  56   30   55 1
  57   31   32 1
  58   31   33 1
  59   31   34 1

#	End of record

