#	Name: ASD01911092
#	Creating user name:	WinNT
#	Creation time:	15. 06. 2019 19:57

#	Modifying user name:	WinNT
#	Modification time:	15. 06. 2019 19:57

#	Program:	/corina/corina34_cracker 3.40 0067  02.08.2006

@<TRIPOS>MOLECULE
ASD01911092
  44   47    0    0    0
SMALL
NO_CHARGES


@<TRIPOS>ATOM
   1 O1            -1.2334     1.6749     0.1492 O.3     
   2 C2            -0.9733     0.3461     0.0741 C.2     
   3 N3            -1.8727    -0.6528     0.1888 N.2     
   4 C4            -1.1871    -1.7615     0.0529 C.2     
   5 O5             0.0887    -1.4122    -0.1375 O.3     
   6 N6             0.1925    -0.2037    -0.1281 N.2     
   7 C7            -1.7341    -3.1649     0.1020 C.3     
   8 C8            -1.4495    -3.8708    -1.2257 C.3     
   9 C9            -2.0334    -5.2850    -1.1890 C.3     
  10 C10           -1.3629    -6.0809    -0.0648 C.3     
  11 N11           -1.5070    -5.3357     1.1932 N.am    
  12 C12           -1.0602    -3.9368     1.2408 C.3     
  13 C13           -2.0389    -5.9241     2.2828 C.2     
  14 O14           -2.5003    -7.0460     2.2035 O.2     
  15 C15           -2.0613    -5.2057     3.5734 C.ar    
  16 C16           -3.1047    -5.4055     4.4777 C.ar    
  17 N17           -3.1262    -4.7655     5.6284 N.ar    
  18 C18           -2.1728    -3.9175     5.9724 C.ar    
  19 C19           -1.1014    -3.6652     5.1276 C.ar    
  20 C20           -1.0318    -4.3168     3.9114 C.ar    
  21 F21           -2.2427    -3.2862     7.1648 F       
  22 C22           -0.1792     2.5333     0.1386 C.ar    
  23 C23           -0.3977     3.9030     0.0598 C.ar    
  24 C24            0.6774     4.7734     0.0497 C.ar    
  25 C25            1.9673     4.2805     0.1179 C.ar    
  26 C26            2.1863     2.9175     0.1958 C.ar    
  27 C27            1.1162     2.0436     0.2121 C.ar    
  28 F28           -1.6583     4.3842    -0.0072 F       
  29 H29           -2.8102    -3.1302     0.2723 H       
  30 H30           -1.9074    -3.3100    -2.0406 H       
  31 H31           -0.3725    -3.9266    -1.3838 H       
  32 H32           -3.1066    -5.2308    -1.0063 H       
  33 H33           -1.8508    -5.7789    -2.1434 H       
  34 H34           -1.8433    -7.0547     0.0302 H       
  35 H35           -0.3051    -6.2136    -0.2918 H       
  36 H36            0.0223    -3.8946     1.1203 H       
  37 H37           -1.3409    -3.4959     2.1973 H       
  38 H38           -3.9021    -6.0911     4.2317 H       
  39 H39           -0.3283    -2.9698     5.4194 H       
  40 H40           -0.2089    -4.1396     3.2347 H       
  41 H41            0.5091     5.8384    -0.0118 H       
  42 H42            2.8056     4.9615     0.1099 H       
  43 H43            3.1952     2.5356     0.2482 H       
  44 H44            1.2887     0.9793     0.2734 H       
@<TRIPOS>BOND
   1    1    2 1
   2    1   22 1
   3    2    3 1
   4    2    6 2
   5    3    4 2
   6    4    5 1
   7    4    7 1
   8    5    6 1
   9    7    8 1
  10    7   12 1
  11    7   29 1
  12    8    9 1
  13    8   30 1
  14    8   31 1
  15    9   10 1
  16    9   32 1
  17    9   33 1
  18   10   11 1
  19   10   34 1
  20   10   35 1
  21   11   12 1
  22   11   13 am
  23   12   36 1
  24   12   37 1
  25   13   14 2
  26   13   15 1
  27   15   16 ar
  28   15   20 ar
  29   16   17 ar
  30   16   38 1
  31   17   18 ar
  32   18   19 ar
  33   18   21 1
  34   19   20 ar
  35   19   39 1
  36   20   40 1
  37   22   23 ar
  38   22   27 ar
  39   23   24 ar
  40   23   28 1
  41   24   25 ar
  42   24   41 1
  43   25   26 ar
  44   25   42 1
  45   26   27 ar
  46   26   43 1
  47   27   44 1

#	End of record

