#	Name: ASD00191025
#	Creating user name:	WinNT
#	Creation time:	15. 06. 2019 18:33

#	Modifying user name:	WinNT
#	Modification time:	15. 06. 2019 18:33

#	Program:	/corina/corina34_cracker 3.40 0067  02.08.2006

@<TRIPOS>MOLECULE
ASD00191025
  54   58    0    0    0
SMALL
NO_CHARGES


@<TRIPOS>ATOM
   1 C1             0.1142     1.4489    -1.1329 C.ar    
   2 C2             0.1537     0.1007    -1.3290 C.ar    
   3 C3             1.3317    -0.6159    -1.1456 C.ar    
   4 C4             2.4792     0.0157    -0.7635 C.ar    
   5 C5             2.4720     1.3985    -0.5542 C.ar    
   6 C6             1.2751     2.1321    -0.7401 C.ar    
   7 C7             3.6696     2.1201    -0.1464 C.ar    
   8 C8             3.5705     3.5026     0.0396 C.ar    
   9 C9             2.3246     4.1345    -0.1737 C.ar    
  10 N10            1.2600     3.4585    -0.5409 N.ar    
  11 N11            4.9672     1.7840     0.1244 N.pl3   
  12 C12            5.6209     2.9295     0.4610 C.2     
  13 N13            4.7983     3.9379     0.4105 N.2     
  14 C14            7.0776     3.0174     0.8367 C.3     
  15 C15            7.2392     2.7134     2.3275 C.3     
  16 C16            8.7182     2.8027     2.7088 C.3     
  17 C17            9.5179     1.7862     1.8914 C.3     
  18 C18            9.3564     2.0903     0.4007 C.3     
  19 C19            7.8774     2.0010     0.0193 C.3     
  20 N20            2.2231     5.5041     0.0102 N.pl3   
  21 C21            0.9773     6.1309    -0.0801 C.ar    
  22 C22            0.8825     7.4222    -0.5835 C.ar    
  23 C23           -0.3502     8.0385    -0.6718 C.ar    
  24 C24           -1.4895     7.3716    -0.2599 C.ar    
  25 C25           -1.3987     6.0862     0.2421 C.ar    
  26 C26           -0.1698     5.4620     0.3278 C.ar    
  27 C27           -0.4539     9.4395    -1.2173 C.3     
  28 C28           -2.6429     5.3636     0.6902 C.3     
  29 F29            0.8207     9.9005    -1.5639 F       
  30 F30           -1.2739     9.4391    -2.3508 F       
  31 F31           -1.0048    10.2794    -0.2435 F       
  32 F32           -3.1837     4.6540    -0.3874 F       
  33 F33           -2.3198     4.4732     1.7198 F       
  34 F34           -3.5803     6.2927     1.1542 F       
  35 H35           -0.8077     1.9908    -1.2840 H       
  36 H36           -0.7434    -0.4193    -1.6309 H       
  37 H37            1.3381    -1.6837    -1.3070 H       
  38 H38            3.3887    -0.5495    -0.6230 H       
  39 H39            5.3507     0.8939     0.0843 H       
  40 H40            7.4465     4.0218     0.6287 H       
  41 H41            6.6694     3.4375     2.9098 H       
  42 H42            6.8703     1.7090     2.5355 H       
  43 H43            9.0870     3.8071     2.5008 H       
  44 H44            8.8333     2.5861     3.7709 H       
  45 H45           10.5716     1.8499     2.1631 H       
  46 H46            9.1491     0.7819     2.0994 H       
  47 H47            9.7252     3.0947     0.1927 H       
  48 H48            9.9261     1.3662    -0.1817 H       
  49 H49            7.5085     0.9966     0.2273 H       
  50 H50            7.7623     2.2176    -1.0427 H       
  51 H51            3.0168     6.0278     0.2017 H       
  52 H52            1.7719     7.9437    -0.9050 H       
  53 H53           -2.4523     7.8558    -0.3301 H       
  54 H54           -0.0996     4.4581     0.7200 H       
@<TRIPOS>BOND
   1    1    2 ar
   2    1    6 ar
   3    1   35 1
   4    2    3 ar
   5    2   36 1
   6    3    4 ar
   7    3   37 1
   8    4    5 ar
   9    4   38 1
  10    5    6 ar
  11    5    7 ar
  12    6   10 ar
  13    7    8 ar
  14    7   11 1
  15    8    9 ar
  16    8   13 1
  17    9   10 ar
  18    9   20 1
  19   11   12 1
  20   11   39 1
  21   12   13 2
  22   12   14 1
  23   14   15 1
  24   14   19 1
  25   14   40 1
  26   15   16 1
  27   15   41 1
  28   15   42 1
  29   16   17 1
  30   16   43 1
  31   16   44 1
  32   17   18 1
  33   17   45 1
  34   17   46 1
  35   18   19 1
  36   18   47 1
  37   18   48 1
  38   19   49 1
  39   19   50 1
  40   20   21 1
  41   20   51 1
  42   21   22 ar
  43   21   26 ar
  44   22   23 ar
  45   22   52 1
  46   23   24 ar
  47   23   27 1
  48   24   25 ar
  49   24   53 1
  50   25   26 ar
  51   25   28 1
  52   26   54 1
  53   27   29 1
  54   27   30 1
  55   27   31 1
  56   28   32 1
  57   28   33 1
  58   28   34 1

#	End of record

