#	Name: ASD04270003
#	Creating user name:	WinNT
#	Creation time:	15. 06. 2019 20:48

#	Modifying user name:	WinNT
#	Modification time:	15. 06. 2019 20:48

#	Program:	/corina/corina34_cracker 3.40 0067  02.08.2006

@<TRIPOS>MOLECULE
ASD04270003
 116  123    0    0    0
SMALL
NO_CHARGES


@<TRIPOS>ATOM
   1 C1            -0.3052     1.0004     1.7936 C.3     
   2 O2            -0.2067    -0.2874     1.1822 O.3     
   3 C3            -1.3301    -0.7792     0.5942 C.ar    
   4 C4            -2.5000    -0.0349     0.6010 C.ar    
   5 C5            -1.3055    -2.0260    -0.0193 C.ar    
   6 O6            -0.1579    -2.7574    -0.0327 O.3     
   7 C7             0.0530    -3.6536     1.0602 C.3     
   8 C8            -2.4562    -2.5241    -0.6188 C.ar    
   9 O9            -2.4374    -3.7438    -1.2201 O.3     
  10 C10           -3.6564    -4.1923    -1.8158 C.3     
  11 C11           -3.6236    -1.7760    -0.6027 C.ar    
  12 C12           -3.6408    -0.5314    -0.0013 C.ar    
  13 C13           -4.9117     0.2783     0.0139 C.3     
  14 C14           -4.9198     1.2409    -1.1553 C.3     
  15 C15           -3.7321     2.2263    -0.9124 C.3     
  16 C16           -3.5966     2.7748    -2.3414 C.3     
  17 O17           -3.8438     1.5898    -3.1752 O.3     
  18 C18           -4.5721     0.6709    -2.4988 C.2     
  19 O19           -4.8876    -0.4217    -2.9069 O.2     
  20 C20           -4.9855     1.0944     1.2927 C.ar    
  21 C21           -5.3737     0.4024     2.4411 C.ar    
  22 C22           -5.4685     1.1117     3.6265 C.ar    
  23 O23           -5.8145     0.7010     4.8677 O.3     
  24 C24           -5.3663     1.7438     5.7586 C.3     
  25 O25           -5.3555     2.9277     4.9339 O.3     
  26 C26           -5.1834     2.4850     3.6677 C.ar    
  27 C27           -4.7945     3.1640     2.5253 C.ar    
  28 C28           -4.6945     2.4410     1.3353 C.ar    
  29 C29           -4.2327     3.2217     0.1174 C.3     
  30 O30           -3.1583     4.1243     0.4909 O.3     
  31 C31           -3.5070     5.3668     0.8600 C.2     
  32 O32           -4.6713     5.6896     0.8708 O.2     
  33 C33           -2.4462     6.3593     1.2612 C.3     
  34 C34           -3.1060     7.6885     1.6334 C.3     
  35 C35           -2.0453     8.6810     2.0345 C.2     
  36 O36           -0.8766     8.3570     2.0237 O.2     
  37 N37           -2.3953     9.9286     2.4052 N.am    
  38 C38           -1.3641    10.8934     2.7951 C.3     
  39 C39           -2.0240    12.2226     3.1673 C.3     
  40 C40           -0.9470    13.2302     3.5745 C.3     
  41 C41           -1.6069    14.5595     3.9467 C.3     
  42 N42           -0.5757    15.5243     4.3367 N.am    
  43 C43           -0.9257    16.7719     4.7073 C.2     
  44 O44           -2.0944    17.0959     4.7181 O.2     
  45 C45            0.1351    17.7643     5.1085 C.3     
  46 C46           -0.5149    19.0736     5.4751 C.2     
  47 C47           -0.9389    19.4379     6.6933 C.2     
  48 C48           -0.8387    18.5888     7.9342 C.3     
  49 C49           -0.7962    20.1907     4.5667 C.ar    
  50 C50           -0.5843    20.4059     3.2042 C.ar    
  51 C51           -0.9748    21.6017     2.6331 C.ar    
  52 O52           -0.7709    21.8171     1.3061 O.3     
  53 C53           -1.1984    23.0750     0.7798 C.3     
  54 C54           -1.5766    22.5866     3.4110 C.ar    
  55 C55           -1.7901    22.3836     4.7570 C.ar    
  56 C56           -1.4037    21.1876     5.3491 C.ar    
  57 N57           -1.4777    20.7006     6.6427 N.am    
  58 C58           -1.9967    21.3656     7.6939 C.2     
  59 O59           -3.1923    21.3262     7.9075 O.2     
  60 C60           -1.1124    22.1420     8.5859 C.ar    
  61 C61           -1.6572    22.9158     9.6132 C.ar    
  62 C62           -0.8263    23.6382    10.4431 C.ar    
  63 C63            0.5462    23.5977    10.2596 C.ar    
  64 C64            1.0926    22.8322     9.2426 C.ar    
  65 C65            0.2725    22.1012     8.4094 C.ar    
  66 Cl66           1.5854    24.5153    11.3045 Cl      
  67 H67            0.6585     1.2730     2.2238 H       
  68 H68           -0.5899     1.7380     1.0433 H       
  69 H69           -1.0593     0.9725     2.5802 H       
  70 H70           -2.5200     0.9339     1.0779 H       
  71 H71            1.0020    -4.1729     0.9263 H       
  72 H72            0.0756    -3.0901     1.9930 H       
  73 H73           -0.7577    -4.3813     1.0950 H       
  74 H74           -3.9628    -3.4889    -2.5899 H       
  75 H75           -3.5037    -5.1764    -2.2589 H       
  76 H76           -4.4325    -4.2538    -1.0529 H       
  77 H77           -4.5182    -2.1623    -1.0683 H       
  78 H78           -5.7731    -0.3866    -0.0501 H       
  79 H79           -5.8643     1.7835    -1.1933 H       
  80 H80           -2.8281     1.7128    -0.5850 H       
  81 H81           -4.3458     3.5433    -2.5320 H       
  82 H82           -2.5925     3.1632    -2.5117 H       
  83 H83           -5.5938    -0.6544     2.4060 H       
  84 H84           -6.0627     1.8626     6.5886 H       
  85 H85           -4.3641     1.5262     6.1277 H       
  86 H86           -4.5754     4.2211     2.5539 H       
  87 H87           -5.0666     3.7903    -0.2943 H       
  88 H88           -1.8946     5.9747     2.1190 H       
  89 H89           -1.7605     6.5147     0.4283 H       
  90 H90           -3.6576     8.0731     0.7755 H       
  91 H91           -3.7918     7.5331     2.4663 H       
  92 H92           -3.3300    10.1877     2.4138 H       
  93 H93           -0.8125    10.5088     3.6530 H       
  94 H94           -0.6784    11.0488     1.9622 H       
  95 H95           -2.5756    12.6072     2.3094 H       
  96 H96           -2.7097    12.0672     4.0002 H       
  97 H97           -0.3954    12.8456     4.4324 H       
  98 H98           -0.2613    13.3856     2.7416 H       
  99 H99           -2.1585    14.9441     3.0889 H       
 100 H100          -2.2926    14.4041     4.7796 H       
 101 H101           0.3590    15.2652     4.3280 H       
 102 H102           0.6867    17.3797     5.9663 H       
 103 H103           0.8208    17.9197     4.2756 H       
 104 H104           0.1092    18.7869     8.4345 H       
 105 H105          -1.6619    18.8298     8.6069 H       
 106 H106          -0.8910    17.5354     7.6589 H       
 107 H107          -0.1174    19.6422     2.5999 H       
 108 H108          -2.2717    23.1872     0.9333 H       
 109 H109          -0.6720    23.8807     1.2916 H       
 110 H110          -0.9775    23.1166    -0.2867 H       
 111 H111          -1.8785    23.5183     2.9557 H       
 112 H112          -2.2575    23.1544     5.3519 H       
 113 H113          -2.7271    22.9484     9.7570 H       
 114 H114          -1.2463    24.2371    11.2376 H       
 115 H115           2.1633    22.8049     9.1044 H       
 116 H116           0.6997    21.5047     7.6168 H       
@<TRIPOS>BOND
   1    1    2 1
   2    1   67 1
   3    1   68 1
   4    1   69 1
   5    2    3 1
   6    3    5 ar
   7    3    4 ar
   8    4   70 1
   9    4   12 ar
  10    5    6 1
  11    5    8 ar
  12    6    7 1
  13    7   71 1
  14    7   72 1
  15    7   73 1
  16    8    9 1
  17    8   11 ar
  18    9   10 1
  19   10   74 1
  20   10   75 1
  21   10   76 1
  22   11   77 1
  23   11   12 ar
  24   12   13 1
  25   13   14 1
  26   13   78 1
  27   13   20 1
  28   14   15 1
  29   14   18 1
  30   14   79 1
  31   15   16 1
  32   15   80 1
  33   15   29 1
  34   16   17 1
  35   16   81 1
  36   16   82 1
  37   17   18 1
  38   18   19 2
  39   20   28 ar
  40   20   21 ar
  41   21   83 1
  42   21   22 ar
  43   22   26 ar
  44   22   23 1
  45   23   24 1
  46   24   25 1
  47   24   84 1
  48   24   85 1
  49   25   26 1
  50   26   27 ar
  51   27   28 ar
  52   27   86 1
  53   28   29 1
  54   29   30 1
  55   29   87 1
  56   30   31 1
  57   31   32 2
  58   31   33 1
  59   33   34 1
  60   33   88 1
  61   33   89 1
  62   34   90 1
  63   34   91 1
  64   34   35 1
  65   35   37 am
  66   35   36 2
  67   37   92 1
  68   37   38 1
  69   38   39 1
  70   38   93 1
  71   38   94 1
  72   39   95 1
  73   39   96 1
  74   39   40 1
  75   40   97 1
  76   40   98 1
  77   40   41 1
  78   41   42 1
  79   41   99 1
  80   41  100 1
  81   42  101 1
  82   42   43 am
  83   43   45 1
  84   43   44 2
  85   45  102 1
  86   45  103 1
  87   45   46 1
  88   46   47 2
  89   46   49 1
  90   47   48 1
  91   47   57 1
  92   48  104 1
  93   48  105 1
  94   48  106 1
  95   49   50 ar
  96   49   56 ar
  97   50  107 1
  98   50   51 ar
  99   51   52 1
 100   51   54 ar
 101   52   53 1
 102   53  108 1
 103   53  109 1
 104   53  110 1
 105   54  111 1
 106   54   55 ar
 107   55   56 ar
 108   55  112 1
 109   56   57 1
 110   57   58 am
 111   58   59 2
 112   58   60 1
 113   60   61 ar
 114   60   65 ar
 115   61  113 1
 116   61   62 ar
 117   62  114 1
 118   62   63 ar
 119   63   64 ar
 120   63   66 1
 121   64   65 ar
 122   64  115 1
 123   65  116 1

#	End of record

