#	Name: ASD01940557
#	Creating user name:	WinNT
#	Creation time:	15. 06. 2019 20:12

#	Modifying user name:	WinNT
#	Modification time:	15. 06. 2019 20:12

#	Program:	/corina/corina34_cracker 3.40 0067  02.08.2006

@<TRIPOS>MOLECULE
ASD01940557
  75   80    0    0    0
SMALL
NO_CHARGES


@<TRIPOS>ATOM
   1 C1             0.4759     1.5950    -0.1861 C.ar    
   2 C2             1.0056     0.9288     0.9092 C.ar    
   3 C3             2.3040     0.4412     0.8598 C.ar    
   4 C4             3.0689     0.6217    -0.2857 C.ar    
   5 C5             2.5383     1.2863    -1.3748 C.ar    
   6 C6             1.2461     1.7723    -1.3287 C.ar    
   7 N7            -0.8359     2.0835    -0.1422 N.am    
   8 C8            -1.0484     3.4375     0.0483 C.2     
   9 C9            -2.3756     3.9297     0.0923 C.2     
  10 C10           -3.4830     2.9629    -0.0686 C.2     
  11 N11           -3.1469     1.6137    -0.2555 N.am    
  12 C12           -1.8607     1.2287    -0.2914 C.2     
  13 C13           -0.0010     4.3262     0.1968 C.2     
  14 C14           -0.2785     5.6832     0.3859 C.2     
  15 N15           -1.5455     6.1324     0.4250 N.am    
  16 C16           -2.6028     5.2804     0.2820 C.2     
  17 N17           -3.8888     5.7640     0.3256 N.pl3   
  18 C18           -1.7958     7.5620     0.6252 C.3     
  19 O19            0.6438     6.4728     0.5181 O.2     
  20 C20            1.4243     3.8382     0.1558 C.3     
  21 C21           -4.7583     3.3602    -0.0367 C.2     
  22 C22           -4.1622     0.6601    -0.4127 C.ar    
  23 N23            2.8420    -0.2307     1.9621 N.am    
  24 C24            2.4959     0.1387     3.2111 C.2     
  25 C25            2.9746    -0.6404     4.3711 C.ar    
  26 O26            1.7897     1.1133     3.3831 O.2     
  27 C27           -4.5327     6.1234    -0.8450 C.ar    
  28 C28           -3.9122     5.8981    -2.0771 C.ar    
  29 C29           -4.5385     6.2481    -3.2332 C.ar    
  30 C30           -5.8210     6.8415    -3.1870 C.ar    
  31 C31           -6.4428     7.0665    -1.9378 C.ar    
  32 C32           -5.8050     6.7056    -0.7895 C.ar    
  33 F33           -6.3989     6.9148     0.4057 F       
  34 O34           -1.6129     0.0507    -0.4608 O.2     
  35 N35           -6.4395     7.1869    -4.3143 N.2     
  36 C36            2.6172    -0.2592     5.6661 C.ar    
  37 C37            3.0677    -0.9925     6.7489 C.ar    
  38 C38            3.8749    -2.1067     6.5478 C.ar    
  39 C39            4.2314    -2.4867     5.2626 C.ar    
  40 C40            3.7810    -1.7632     4.1754 C.ar    
  41 C41           -4.9714     0.6868    -1.5407 C.ar    
  42 C42           -5.9717    -0.2529    -1.6962 C.ar    
  43 C43           -6.1690    -1.2236    -0.7259 C.ar    
  44 C44           -5.3607    -1.2516     0.4035 C.ar    
  45 C45           -4.3552    -0.3149     0.5567 C.ar    
  46 F46            4.3134    -2.8209     7.6075 F       
  47 F47            5.0162    -3.5699     5.0731 F       
  48 O48            2.7215    -0.6232     8.0108 O.3     
  49 F49           -5.5533    -2.1970     1.3491 F       
  50 O50           -7.1546    -2.1483    -0.8797 O.3     
  51 O51           -7.5443     7.6979    -4.2708 O.2     
  52 H52            0.4089     0.7900     1.7987 H       
  53 H53            4.0794     0.2426    -0.3250 H       
  54 H54            3.1351     1.4257    -2.2641 H       
  55 H55            0.8342     2.2910    -2.1818 H       
  56 H56           -4.3449     5.8532     1.1770 H       
  57 H57           -0.8512     8.0739     0.8090 H       
  58 H58           -2.2664     7.9767    -0.2662 H       
  59 H59           -2.4560     7.6988     1.4816 H       
  60 H60            1.7540     3.7663    -0.8807 H       
  61 H61            2.0638     4.5388     0.6927 H       
  62 H62            1.4859     2.8566     0.6256 H       
  63 H63           -4.9995     4.3821     0.2161 H       
  64 H64           -5.5481     2.6593    -0.2637 H       
  65 H65            3.4641    -0.9626     1.8276 H       
  66 H66           -2.9324     5.4451    -2.1115 H       
  67 H67           -4.0570     6.0734    -4.1840 H       
  68 H68           -7.4222     7.5196    -1.8940 H       
  69 H69            1.9906     0.6065     5.8219 H       
  70 H70            4.0557    -2.0636     3.1751 H       
  71 H71           -4.8189     1.4429    -2.2966 H       
  72 H72           -6.6007    -0.2315    -2.5738 H       
  73 H73           -3.7233    -0.3389     1.4322 H       
  74 H74            1.9027    -1.0280     8.3284 H       
  75 H75           -6.8736    -2.9493    -1.3429 H       
@<TRIPOS>BOND
   1    1    2 ar
   2    1    6 ar
   3    1    7 1
   4    2    3 ar
   5    2   52 1
   6    3    4 ar
   7    3   23 1
   8    4    5 ar
   9    4   53 1
  10    5    6 ar
  11    5   54 1
  12    6   55 1
  13    7    8 1
  14    7   12 am
  15    8   13 2
  16    8    9 1
  17    9   10 1
  18    9   16 2
  19   10   11 1
  20   10   21 2
  21   11   12 am
  22   11   22 1
  23   12   34 2
  24   13   14 1
  25   13   20 1
  26   14   15 am
  27   14   19 2
  28   15   16 1
  29   15   18 1
  30   16   17 1
  31   17   27 1
  32   17   56 1
  33   18   57 1
  34   18   58 1
  35   18   59 1
  36   20   60 1
  37   20   61 1
  38   20   62 1
  39   21   63 1
  40   21   64 1
  41   22   41 ar
  42   22   45 ar
  43   23   24 am
  44   23   65 1
  45   24   25 1
  46   24   26 2
  47   25   36 ar
  48   25   40 ar
  49   27   28 ar
  50   27   32 ar
  51   28   29 ar
  52   28   66 1
  53   29   30 ar
  54   29   67 1
  55   30   31 ar
  56   30   35 1
  57   31   32 ar
  58   31   68 1
  59   32   33 1
  60   35   51 2
  61   36   37 ar
  62   36   69 1
  63   37   38 ar
  64   37   48 1
  65   38   39 ar
  66   38   46 1
  67   39   40 ar
  68   39   47 1
  69   40   70 1
  70   41   42 ar
  71   41   71 1
  72   42   43 ar
  73   42   72 1
  74   43   44 ar
  75   43   50 1
  76   44   45 ar
  77   44   49 1
  78   45   73 1
  79   48   74 1
  80   50   75 1

#	End of record

