#	Name: ASD02038789
#	Creating user name:	WinNT
#	Creation time:	15. 06. 2019 20:17

#	Modifying user name:	WinNT
#	Modification time:	15. 06. 2019 20:17

#	Program:	/corina/corina34_cracker 3.40 0067  02.08.2006

@<TRIPOS>MOLECULE
ASD02038789
  46   48    0    0    0
SMALL
NO_CHARGES


@<TRIPOS>ATOM
   1 C1            -1.2821    -0.8495     0.4645 C.2     
   2 C2            -0.0598    -0.0335     0.3010 C.2     
   3 N3             1.1372    -0.6351     0.1535 N.am    
   4 C4             1.2412    -2.0931     0.2506 C.3     
   5 C5             1.2133    -2.6919    -1.1321 C.ar    
   6 C6             2.3344     0.1692    -0.1038 C.3     
   7 O7            -0.1346     1.1797     0.2997 O.2     
   8 N8            -1.3387    -2.1935     0.4950 N.2     
   9 C9            -2.5944    -2.5259     0.6545 C.2     
  10 N10           -3.3115    -1.3890     0.7223 N.pl3   
  11 N11           -2.5054    -0.3899     0.6114 N.2     
  12 C12            2.3971    -3.0141    -1.7687 C.ar    
  13 C13            2.1234     1.0132    -1.3645 C.3     
  14 C14            3.3469     1.9076    -1.5811 C.3     
  15 O15            3.5468     2.7265    -0.4272 O.3     
  16 C16            3.7961     1.9923     0.7732 C.3     
  17 C17            2.5907     1.1013     1.0844 C.3     
  18 C18            0.0036    -2.9232    -1.7595 C.ar    
  19 C19           -0.0263    -3.4726    -3.0284 C.ar    
  20 C20            1.1552    -3.7921    -3.6722 C.ar    
  21 C21            2.3718    -3.5649    -3.0405 C.ar    
  22 F22            1.1264    -4.3292    -4.9115 F       
  23 O23            3.5352    -3.8774    -3.6706 O.3     
  24 C24            4.7478    -3.6166    -2.9609 C.3     
  25 F25            4.7573    -4.3490    -1.7690 F       
  26 F26            5.8400    -3.9945    -3.7492 F       
  27 F27            4.8331    -2.2509    -2.6697 F       
  28 C28           -4.7633    -1.3020     0.8984 C.3     
  29 H29            2.1769    -2.3587     0.7427 H       
  30 H30            0.4032    -2.4794     0.8308 H       
  31 H31            3.1921    -0.4885    -0.2446 H       
  32 H32           -2.9847    -3.5308     0.7197 H       
  33 H33            3.3414    -2.8366    -1.2755 H       
  34 H34            1.9952     0.3567    -2.2252 H       
  35 H35            1.2355     1.6337    -1.2431 H       
  36 H36            4.2275     1.2860    -1.7428 H       
  37 H37            3.1841     2.5414    -2.4528 H       
  38 H38            4.6826     1.3718     0.6424 H       
  39 H39            3.9569     2.6871     1.5975 H       
  40 H40            1.7122     1.7236     1.2553 H       
  41 H41            2.7967     0.5078     1.9751 H       
  42 H42           -0.9200    -2.6749    -1.2579 H       
  43 H43           -0.9727    -3.6524    -3.5166 H       
  44 H44           -4.9985    -1.2624     1.9620 H       
  45 H45           -5.1351    -0.4011     0.4103 H       
  46 H46           -5.2363    -2.1776     0.4540 H       
@<TRIPOS>BOND
   1    1    2 1
   2    1    8 1
   3    1   11 2
   4    2    3 am
   5    2    7 2
   6    3    4 1
   7    3    6 1
   8    4    5 1
   9    4   29 1
  10    4   30 1
  11    5   12 ar
  12    5   18 ar
  13    6   13 1
  14    6   17 1
  15    6   31 1
  16    8    9 2
  17    9   10 1
  18    9   32 1
  19   10   11 1
  20   10   28 1
  21   12   21 ar
  22   12   33 1
  23   13   14 1
  24   13   34 1
  25   13   35 1
  26   14   15 1
  27   14   36 1
  28   14   37 1
  29   15   16 1
  30   16   17 1
  31   16   38 1
  32   16   39 1
  33   17   40 1
  34   17   41 1
  35   18   19 ar
  36   18   42 1
  37   19   20 ar
  38   19   43 1
  39   20   21 ar
  40   20   22 1
  41   21   23 1
  42   23   24 1
  43   24   25 1
  44   24   26 1
  45   24   27 1
  46   28   44 1
  47   28   45 1
  48   28   46 1

#	End of record

