#	Name: ASD01120127
#	Creating user name:	WinNT
#	Creation time:	15. 06. 2019 18:59

#	Modifying user name:	WinNT
#	Modification time:	15. 06. 2019 18:59

#	Program:	/corina/corina34_cracker 3.40 0067  02.08.2006

@<TRIPOS>MOLECULE
ASD01120127
  34   36    0    0    0
SMALL
NO_CHARGES


@<TRIPOS>ATOM
   1 C1            -0.0349     1.2526    -0.6807 C.ar    
   2 C2             1.0748     1.6115    -1.4485 C.ar    
   3 C3             2.3004     0.9805    -1.2321 C.ar    
   4 C4             2.4078     0.0016    -0.2563 C.ar    
   5 C5             1.2966    -0.3482     0.5027 C.ar    
   6 C6             0.0828     0.2768     0.2883 C.ar    
   7 N7             3.6332    -0.6340    -0.0357 N.pl3   
   8 C8             4.8153     0.0815    -0.1478 C.2     
   9 N9             6.0079    -0.4250    -0.0803 N.2     
  10 C10            7.0262     0.4150    -0.2098 C.2     
  11 C11            6.6908     1.7031    -0.3972 C.2     
  12 S12            4.9325     1.8188    -0.4117 S.3     
  13 C13            8.4381    -0.0361    -0.1512 C.ar    
  14 C14            8.7331    -1.3842     0.0453 C.ar    
  15 C15           10.0470    -1.8005     0.0988 C.ar    
  16 C16           11.0750    -0.8785    -0.0423 C.ar    
  17 C17           10.7846     0.4647    -0.2377 C.ar    
  18 C18            9.4727     0.8865    -0.2983 C.ar    
  19 O19           12.3686    -1.2917     0.0113 O.3     
  20 C20            0.9516     2.6553    -2.4868 C.2     
  21 O21            1.9182     2.9659    -3.1535 O.2     
  22 O22           -0.2329     3.2626    -2.6940 O.3     
  23 H23           -0.9842     1.7417    -0.8420 H       
  24 H24            3.1622     1.2535    -1.8230 H       
  25 H25            1.3824    -1.1110     1.2624 H       
  26 H26           -0.7769     0.0004     0.8808 H       
  27 H27            3.6564    -1.5756     0.1958 H       
  28 H28            7.3803     2.5249    -0.5221 H       
  29 H29            7.9337    -2.1020     0.1558 H       
  30 H30           10.2762    -2.8448     0.2510 H       
  31 H31           11.5866     1.1797    -0.3468 H       
  32 H32            9.2474     1.9317    -0.4503 H       
  33 H33           12.7382    -1.5398    -0.8472 H       
  34 H34           -0.2645     3.9392    -3.3842 H       
@<TRIPOS>BOND
   1    1    2 ar
   2    1    6 ar
   3    1   23 1
   4    2    3 ar
   5    2   20 1
   6    3    4 ar
   7    3   24 1
   8    4    5 ar
   9    4    7 1
  10    5    6 ar
  11    5   25 1
  12    6   26 1
  13    7    8 1
  14    7   27 1
  15    8    9 2
  16    8   12 1
  17    9   10 1
  18   10   11 2
  19   10   13 1
  20   11   12 1
  21   11   28 1
  22   13   14 ar
  23   13   18 ar
  24   14   15 ar
  25   14   29 1
  26   15   16 ar
  27   15   30 1
  28   16   17 ar
  29   16   19 1
  30   17   18 ar
  31   17   31 1
  32   18   32 1
  33   19   33 1
  34   20   21 2
  35   20   22 1
  36   22   34 1

#	End of record

