#	Name: ASD01900688
#	Creating user name:	WinNT
#	Creation time:	15. 06. 2019 19:52

#	Modifying user name:	WinNT
#	Modification time:	15. 06. 2019 19:52

#	Program:	/corina/corina34_cracker 3.40 0067  02.08.2006

@<TRIPOS>MOLECULE
ASD01900688
  31   34    0    0    0
SMALL
NO_CHARGES


@<TRIPOS>ATOM
   1 C1            -0.0183     1.4025     0.1323 C.ar    
   2 C2            -0.0081     0.0177     0.1212 C.ar    
   3 C3             1.1829    -0.6778     0.0628 C.ar    
   4 C4             2.3875     0.0113     0.0137 C.ar    
   5 C5             2.3724     1.4127     0.0290 C.ar    
   6 O6             3.5589    -0.6564    -0.0554 O.3     
   7 C7             4.7335    -0.0513     0.1912 C.2     
   8 C8             4.8724     1.2952     0.2220 C.2     
   9 C9             3.6750     2.1246    -0.0107 C.2     
  10 C10            5.9227    -0.8906     0.4394 C.ar    
  11 N11            7.0968    -0.3093     0.6858 N.ar    
  12 C12            8.1835    -1.0083     0.9127 C.ar    
  13 C13            8.1549    -2.4055     0.9054 C.ar    
  14 C14            6.9438    -3.0647     0.6512 C.ar    
  15 C15            5.8005    -2.2709     0.4184 C.ar    
  16 C16            1.1700     2.1048     0.0863 C.ar    
  17 S17            9.4258    -3.5907     1.1704 S.3     
  18 C18            8.3188    -4.9303     0.9374 C.2     
  19 C19            7.0948    -4.5063     0.6815 C.2     
  20 N20            3.7560     3.4130    -0.2386 N.2     
  21 O21            2.5976     4.1420    -0.6018 O.3     
  22 H22           -0.9575     1.9343     0.1724 H       
  23 H23           -0.9417    -0.5239     0.1591 H       
  24 H24            1.1779    -1.7578     0.0557 H       
  25 H25            5.8338     1.7495     0.4111 H       
  26 H26            9.1143    -0.4963     1.1077 H       
  27 H27            4.8450    -2.7328     0.2181 H       
  28 H28            1.1640     3.1848     0.0942 H       
  29 H29            8.6023    -5.9708     0.9958 H       
  30 H30            6.2697    -5.1813     0.5085 H       
  31 H31            2.7560     5.0844    -0.7492 H       
@<TRIPOS>BOND
   1    1    2 ar
   2    1   16 ar
   3    1   22 1
   4    2    3 ar
   5    2   23 1
   6    3    4 ar
   7    3   24 1
   8    4    5 ar
   9    4    6 1
  10    5   16 ar
  11    5    9 1
  12    6    7 1
  13    7    8 2
  14    7   10 1
  15    8    9 1
  16    8   25 1
  17    9   20 2
  18   10   11 ar
  19   10   15 ar
  20   11   12 ar
  21   12   13 ar
  22   12   26 1
  23   13   14 ar
  24   13   17 1
  25   14   15 ar
  26   14   19 1
  27   15   27 1
  28   16   28 1
  29   17   18 1
  30   18   19 2
  31   18   29 1
  32   19   30 1
  33   20   21 1
  34   21   31 1

#	End of record

