#	Name: ASD01913421
#	Creating user name:	WinNT
#	Creation time:	15. 06. 2019 20:01

#	Modifying user name:	WinNT
#	Modification time:	15. 06. 2019 20:01

#	Program:	/corina/corina34_cracker 3.40 0067  02.08.2006

@<TRIPOS>MOLECULE
ASD01913421
  41   43    0    0    0
SMALL
NO_CHARGES


@<TRIPOS>ATOM
   1 C1            -1.9621    -0.7281    -2.1791 C.ar    
   2 C2            -1.4558    -0.0510    -1.0721 C.ar    
   3 C3            -1.4802     1.3416    -1.0832 C.ar    
   4 N4            -1.9795     1.9660    -2.1368 N.ar    
   5 C5            -2.4492     1.2886    -3.1653 C.ar    
   6 N6            -2.4441    -0.0291    -3.1932 N.ar    
   7 C7            -1.0324    -2.1440     0.0678 C.ar    
   8 C8             0.1187    -2.9210     0.0151 C.ar    
   9 C9             0.0303    -4.3007     0.0666 C.ar    
  10 C10           -1.2026    -4.9145     0.1702 C.ar    
  11 C11           -2.3645    -4.1421     0.2237 C.ar    
  12 C12           -2.2750    -2.7513     0.1723 C.ar    
  13 C13           -3.6854    -4.7965     0.3341 C.2     
  14 N14           -3.7695    -6.1408     0.3833 N.am    
  15 C15           -5.0020    -6.7543     0.5962 C.ar    
  16 O16           -4.6957    -4.1223     0.3805 O.2     
  17 N17           -0.9375    -0.7506     0.0212 N.pl3   
  18 Cl18           1.4734    -5.2634     0.0003 Cl      
  19 N19           -6.1016    -6.0187     0.6416 N.ar    
  20 C20           -7.2883    -6.5598     0.8405 C.ar    
  21 C21           -7.4255    -7.9232     1.0097 C.ar    
  22 C22           -6.2965    -8.7303     0.9689 C.ar    
  23 C23           -5.0666    -8.1345     0.7533 C.ar    
  24 C24           -0.2947    -0.0232     1.1184 C.3     
  25 C25           -6.4089   -10.2221     1.1501 C.3     
  26 H26           -1.9571    -1.8076    -2.2108 H       
  27 H27           -1.0974     1.9032    -0.2439 H       
  28 H28           -2.8500     1.8292    -4.0099 H       
  29 H29            1.0854    -2.4463    -0.0666 H       
  30 H30           -1.2679    -5.9918     0.2095 H       
  31 H31           -3.1705    -2.1490     0.2136 H       
  32 H32           -2.9718    -6.6811     0.2704 H       
  33 H33           -8.1637    -5.9280     0.8718 H       
  34 H34           -8.4010    -8.3573     1.1724 H       
  35 H35           -4.1680    -8.7323     0.7153 H       
  36 H36           -1.0410     0.2350     1.8696 H       
  37 H37            0.4733    -0.6511     1.5699 H       
  38 H38            0.1620     0.8880     0.7318 H       
  39 H39           -6.5543   -10.6961     0.1793 H       
  40 H40           -5.4952   -10.6025     1.6069 H       
  41 H41           -7.2583   -10.4469     1.7950 H       
@<TRIPOS>BOND
   1    1    2 ar
   2    1    6 ar
   3    1   26 1
   4    2    3 ar
   5    2   17 1
   6    3    4 ar
   7    3   27 1
   8    4    5 ar
   9    5    6 ar
  10    5   28 1
  11    7    8 ar
  12    7   12 ar
  13    7   17 1
  14    8    9 ar
  15    8   29 1
  16    9   10 ar
  17    9   18 1
  18   10   11 ar
  19   10   30 1
  20   11   12 ar
  21   11   13 1
  22   12   31 1
  23   13   14 am
  24   13   16 2
  25   14   15 1
  26   14   32 1
  27   15   19 ar
  28   15   23 ar
  29   17   24 1
  30   19   20 ar
  31   20   21 ar
  32   20   33 1
  33   21   22 ar
  34   21   34 1
  35   22   23 ar
  36   22   25 1
  37   23   35 1
  38   24   36 1
  39   24   37 1
  40   24   38 1
  41   25   39 1
  42   25   40 1
  43   25   41 1

#	End of record

