#	Name: ASD08150673
#	Creating user name:	WinNT
#	Creation time:	15. 06. 2019 21:16

#	Modifying user name:	WinNT
#	Modification time:	15. 06. 2019 21:16

#	Program:	/corina/corina34_cracker 3.40 0067  02.08.2006

@<TRIPOS>MOLECULE
ASD08150673
  56   61    0    0    0
SMALL
NO_CHARGES


@<TRIPOS>ATOM
   1 N1            -0.4086     0.3174    -1.8769 N.am    
   2 C2             0.2616     0.8297    -2.9272 C.2     
   3 C3             1.5557     0.3746    -3.2516 C.2     
   4 C4             2.1471    -0.5921    -2.5043 C.2     
   5 C5             1.4451    -1.1329    -1.3984 C.ar    
   6 C6             2.0128    -2.1368    -0.5905 C.ar    
   7 N7             1.3631    -2.6337     0.4294 N.ar    
   8 C8             0.1307    -2.2224     0.7645 C.ar    
   9 C9            -0.5179    -1.2159     0.0075 C.ar    
  10 C10            0.1580    -0.6579    -1.1030 C.ar    
  11 C11           -1.8026    -0.7949     0.3645 C.ar    
  12 C12           -2.4292    -1.3691     1.4588 C.ar    
  13 C13           -1.7810    -2.3647     2.2032 C.ar    
  14 C14           -0.5313    -2.7842     1.8686 C.ar    
  15 O15           -0.2583     1.6985    -3.6067 O.2     
  16 C16           -3.7916    -0.9282     1.8448 C.2     
  17 C17           -1.6916     0.7906    -1.5719 C.ar    
  18 C18           -1.8473     1.8719    -0.7139 C.ar    
  19 C19           -3.1109     2.3383    -0.4137 C.ar    
  20 C20           -4.2275     1.7263    -0.9697 C.ar    
  21 C21           -4.0717     0.6451    -1.8276 C.ar    
  22 C22           -2.8073     0.1821    -2.1319 C.ar    
  23 N23           -5.5077     2.1984    -0.6654 N.3     
  24 C24           -6.1547     2.7702    -1.8545 C.3     
  25 C25           -5.4612     3.1791     0.4281 C.3     
  26 C26           -6.8859     3.6107     0.7836 C.3     
  27 N27           -7.5329     4.1825    -0.4056 N.3     
  28 C28           -7.5794     3.2018    -1.4990 C.3     
  29 C29           -4.7224    -1.7692     2.3399 C.2     
  30 S30           -6.1806    -0.8338     2.6602 S.3     
  31 C31           -5.4083     0.5855     2.1035 C.2     
  32 N32           -4.2001     0.3281     1.7388 N.2     
  33 C33           -5.2826    -0.0188    -2.4308 C.3     
  34 F34           -4.9608    -1.3295    -2.7994 F       
  35 F35           -6.3193    -0.0398    -1.4917 F       
  36 F36           -5.6920     0.6964    -3.5614 F       
  37 H37            2.0781     0.7960    -4.0977 H       
  38 H38            3.1383    -0.9442    -2.7493 H       
  39 H39            3.0030    -2.5034    -0.8178 H       
  40 H40           -2.3026    -0.0278    -0.2082 H       
  41 H41           -2.2805    -2.8041     3.0540 H       
  42 H42           -0.0468    -3.5522     2.4531 H       
  43 H43           -0.9793     2.3474    -0.2814 H       
  44 H44           -3.2319     3.1788     0.2537 H       
  45 H45           -2.6859    -0.6560    -2.8021 H       
  46 H46           -5.5872     3.6356    -2.1966 H       
  47 H47           -6.1884     2.0212    -2.6457 H       
  48 H48           -4.9893     2.7283     1.3011 H       
  49 H49           -4.8858     4.0492     0.1120 H       
  50 H50           -7.4534     2.7453     1.1257 H       
  51 H51           -6.8522     4.3597     1.5748 H       
  52 H52           -8.4568     4.5232    -0.1859 H       
  53 H53           -8.0513     3.6527    -2.3720 H       
  54 H54           -8.1548     2.3317    -1.1829 H       
  55 H55           -4.5965    -2.8283     2.5095 H       
  56 H56           -5.8676     1.5623     2.0665 H       
@<TRIPOS>BOND
   1    1    2 am
   2    1   10 1
   3    1   17 1
   4    2    3 1
   5    2   15 2
   6    3    4 2
   7    3   37 1
   8    4    5 1
   9    4   38 1
  10    5    6 ar
  11    5   10 ar
  12    6    7 ar
  13    6   39 1
  14    7    8 ar
  15    8    9 ar
  16    8   14 ar
  17    9   10 ar
  18    9   11 ar
  19   11   12 ar
  20   11   40 1
  21   12   13 ar
  22   12   16 1
  23   13   14 ar
  24   13   41 1
  25   14   42 1
  26   16   29 2
  27   16   32 1
  28   17   18 ar
  29   17   22 ar
  30   18   19 ar
  31   18   43 1
  32   19   20 ar
  33   19   44 1
  34   20   21 ar
  35   20   23 1
  36   21   22 ar
  37   21   33 1
  38   22   45 1
  39   23   24 1
  40   23   25 1
  41   24   28 1
  42   24   46 1
  43   24   47 1
  44   25   26 1
  45   25   48 1
  46   25   49 1
  47   26   27 1
  48   26   50 1
  49   26   51 1
  50   27   28 1
  51   27   52 1
  52   28   53 1
  53   28   54 1
  54   29   30 1
  55   29   55 1
  56   30   31 1
  57   31   32 2
  58   31   56 1
  59   33   34 1
  60   33   35 1
  61   33   36 1

#	End of record

