#	Name: ASD01320015
#	Creating user name:	WinNT
#	Creation time:	15. 06. 2019 19:15

#	Modifying user name:	WinNT
#	Modification time:	15. 06. 2019 19:15

#	Program:	/corina/corina34_cracker 3.40 0067  02.08.2006

@<TRIPOS>MOLECULE
ASD01320015
  48   50    0    0    0
SMALL
NO_CHARGES


@<TRIPOS>ATOM
   1 C1             1.1555     1.4328     0.3549 C.ar    
   2 C2             0.8410     0.1110     0.6092 C.ar    
   3 C3             1.7877    -0.8793     0.4005 C.ar    
   4 C4             3.0557    -0.5387    -0.0664 C.ar    
   5 C5             3.3634     0.7902    -0.3198 C.ar    
   6 C6             2.4137     1.7715    -0.1085 C.ar    
   7 O7             1.4803    -2.1797     0.6510 O.3     
   8 C8             0.2132    -2.4714     1.0391 C.ar    
   9 C9            -0.7880    -2.6085     0.0857 C.ar    
  10 C10           -2.0865    -2.9073     0.4816 C.ar    
  11 C11           -2.3779    -3.0692     1.8507 C.ar    
  12 C12           -1.3620    -2.9283     2.7950 C.ar    
  13 C13           -0.0763    -2.6372     2.3885 C.ar    
  14 N14            4.0166    -1.5347    -0.2788 N.am    
  15 C15            5.0697    -1.2942    -1.0848 C.2     
  16 C16            6.1369    -2.3068    -1.2284 C.ar    
  17 O17            5.1418    -0.2444    -1.6937 O.2     
  18 C18            7.2288    -2.0609    -2.0622 C.ar    
  19 C19            8.2218    -3.0101    -2.1914 C.ar    
  20 C20            8.1365    -4.2036    -1.4970 C.ar    
  21 C21            7.0566    -4.4537    -0.6687 C.ar    
  22 C22            6.0600    -3.5109    -0.5261 C.ar    
  23 C23            2.7495     3.2144    -0.3847 C.3     
  24 C24           -3.7529    -3.3861     2.2833 C.2     
  25 O25           -4.6729    -2.6603     1.9629 O.2     
  26 O26           -3.9878    -4.4804     3.0335 O.3     
  27 C27           -3.1564    -3.0541    -0.5284 C.2     
  28 O28           -4.2616    -3.4288    -0.1923 O.2     
  29 O29           -2.9052    -2.7721    -1.8214 O.3     
  30 N30            9.3805    -2.7511    -3.0752 N.pl3   
  31 O31            9.4567    -1.7009    -3.6874 O.2     
  32 O32           10.2578    -3.5881    -3.1902 O.2     
  33 H33            0.4151     2.2027     0.5142 H       
  34 H34           -0.1426    -0.1500     0.9710 H       
  35 H35            4.3453     1.0578    -0.6814 H       
  36 H36           -0.5578    -2.4828    -0.9620 H       
  37 H37           -1.5808    -3.0515     3.8454 H       
  38 H38            0.7077    -2.5289     3.1233 H       
  39 H39            3.9243    -2.3978     0.1541 H       
  40 H40            7.2961    -1.1298    -2.6053 H       
  41 H41            8.9161    -4.9436    -1.6022 H       
  42 H42            6.9961    -5.3875    -0.1294 H       
  43 H43            5.2177    -3.7073     0.1207 H       
  44 H44            2.5027     3.4533    -1.4192 H       
  45 H45            2.1746     3.8556     0.2834 H       
  46 H46            3.8143     3.3779    -0.2182 H       
  47 H47           -4.9045    -4.6465     3.2926 H       
  48 H48           -3.6360    -2.8831    -2.4450 H       
@<TRIPOS>BOND
   1    1    2 ar
   2    1    6 ar
   3    1   33 1
   4    2    3 ar
   5    2   34 1
   6    3    4 ar
   7    3    7 1
   8    4    5 ar
   9    4   14 1
  10    5    6 ar
  11    5   35 1
  12    6   23 1
  13    7    8 1
  14    8    9 ar
  15    8   13 ar
  16    9   10 ar
  17    9   36 1
  18   10   11 ar
  19   10   27 1
  20   11   12 ar
  21   11   24 1
  22   12   13 ar
  23   12   37 1
  24   13   38 1
  25   14   15 am
  26   14   39 1
  27   15   16 1
  28   15   17 2
  29   16   18 ar
  30   16   22 ar
  31   18   19 ar
  32   18   40 1
  33   19   20 ar
  34   19   30 1
  35   20   21 ar
  36   20   41 1
  37   21   22 ar
  38   21   42 1
  39   22   43 1
  40   23   44 1
  41   23   45 1
  42   23   46 1
  43   24   25 2
  44   24   26 1
  45   26   47 1
  46   27   28 2
  47   27   29 1
  48   29   48 1
  49   30   31 2
  50   30   32 2

#	End of record

