#	Name: ASD05060083
#	Creating user name:	WinNT
#	Creation time:	15. 06. 2019 20:56

#	Modifying user name:	WinNT
#	Modification time:	15. 06. 2019 20:56

#	Program:	/corina/corina34_cracker 3.40 0067  02.08.2006

@<TRIPOS>MOLECULE
ASD05060083
  24   25    0    0    0
SMALL
NO_CHARGES


@<TRIPOS>ATOM
   1 C1            -0.0187     1.5265     0.0104 C.3     
   2 C2             0.0021    -0.0041     0.0020 C.3     
   3 C3             0.9886    -0.4778     1.0771 C.3     
   4 O4             2.2996    -0.0501     0.7055 O.3     
   5 C5             2.4658     1.2494     0.3462 C.ar    
   6 C6             1.3940     2.0531    -0.0002 C.ar    
   7 C7             1.6110     3.3713    -0.3660 C.ar    
   8 C8             2.8916     3.8880    -0.3837 C.ar    
   9 C9             3.9644     3.0882    -0.0348 C.ar    
  10 C10            3.7545     1.7740     0.3290 C.ar    
  11 C11           -1.3966    -0.5406     0.3130 C.3     
  12 O12           -1.3989    -1.9643     0.1897 O.3     
  13 H13           -0.5469     1.8870    -0.8723 H       
  14 H14           -0.5299     1.8775     0.9069 H       
  15 H15            0.3245    -0.3618    -0.9758 H       
  16 H16            0.7196    -0.0426     2.0396 H       
  17 H17            0.9629    -1.5654     1.1453 H       
  18 H18            0.7748     3.9979    -0.6389 H       
  19 H19            3.0552     4.9164    -0.6704 H       
  20 H20            4.9660     3.4920    -0.0473 H       
  21 H21            4.5931     1.1505     0.6017 H       
  22 H22           -1.6742    -0.2636     1.3300 H       
  23 H23           -2.1137    -0.1140    -0.3883 H       
  24 H24           -2.2556    -2.3736     0.3732 H       
@<TRIPOS>BOND
   1    1    2 1
   2    1    6 1
   3    1   13 1
   4    1   14 1
   5    2    3 1
   6    2   11 1
   7    2   15 1
   8    3    4 1
   9    3   16 1
  10    3   17 1
  11    4    5 1
  12    5    6 ar
  13    5   10 ar
  14    6    7 ar
  15    7    8 ar
  16    7   18 1
  17    8    9 ar
  18    8   19 1
  19    9   10 ar
  20    9   20 1
  21   10   21 1
  22   11   12 1
  23   11   22 1
  24   11   23 1
  25   12   24 1

#	End of record

