#	Name: ASD00431005
#	Creating user name:	WinNT
#	Creation time:	15. 06. 2019 18:35

#	Modifying user name:	WinNT
#	Modification time:	15. 06. 2019 18:35

#	Program:	/corina/corina34_cracker 3.40 0067  02.08.2006

@<TRIPOS>MOLECULE
ASD00431005
  40   40    0    0    0
SMALL
NO_CHARGES


@<TRIPOS>ATOM
   1 C1            -0.0184     1.5087     0.0103 C.3     
   2 C2             0.0021    -0.0041     0.0020 C.2     
   3 C3             0.8237    -0.7181     1.0528 C.3     
   4 C4             0.8508    -2.1957     0.7580 C.2     
   5 O5            -0.6225    -0.6265    -0.8231 O.2     
   6 O6             1.9043    -2.7526     0.5581 O.2     
   7 C7             1.4301     2.0133    -0.0008 C.3     
   8 N8             2.1840     1.3091     1.0444 N.am    
   9 C9             2.2511    -0.1577     1.0156 C.3     
  10 C10            2.8067     2.0009     2.0191 C.2     
  11 O11            3.4286     1.4111     2.8805 O.2     
  12 O12            2.7398     3.3454     2.0384 O.3     
  13 C13            3.4344     4.0246     3.1175 C.3     
  14 O14           -0.2953    -2.8932     0.7175 O.3     
  15 C15           -1.5916    -4.9337     0.4240 C.3     
  16 C16           -0.1934    -4.3124     0.4280 C.3     
  17 C17            4.9257     3.6881     3.0557 C.3     
  18 C18            3.2463     5.5362     2.9735 C.3     
  19 C19            2.8632     3.5653     4.4605 C.3     
  20 H20           -0.5409     1.8735    -0.8740 H       
  21 H21           -0.5239     1.8639     0.9084 H       
  22 H22            0.3878    -0.5483     2.0373 H       
  23 H23            1.8795     1.8128    -0.9734 H       
  24 H24            1.4453     3.0851     0.1970 H       
  25 H25            2.8067    -0.5152     1.8825 H       
  26 H26            2.7476    -0.4829     0.1013 H       
  27 H27           -2.0538    -4.7946     1.4013 H       
  28 H28           -2.2019    -4.4502    -0.3387 H       
  29 H29           -1.5151    -5.9991     0.2066 H       
  30 H30            0.2688    -4.4515    -0.5493 H       
  31 H31            0.4169    -4.7959     1.1907 H       
  32 H32            5.3326     4.0153     2.0989 H       
  33 H33            5.4471     4.1980     3.8657 H       
  34 H34            5.0597     2.6112     3.1583 H       
  35 H35            2.1839     5.7759     3.0176 H       
  36 H36            3.7677     6.0460     3.7836 H       
  37 H37            3.6532     5.8634     2.0167 H       
  38 H38            2.9972     2.4884     4.5631 H       
  39 H39            3.3847     4.0751     5.2706 H       
  40 H40            1.8008     3.8050     4.5046 H       
@<TRIPOS>BOND
   1    1    2 1
   2    1    7 1
   3    1   20 1
   4    1   21 1
   5    2    3 1
   6    2    5 2
   7    3    4 1
   8    3    9 1
   9    3   22 1
  10    4    6 2
  11    4   14 1
  12    7    8 1
  13    7   23 1
  14    7   24 1
  15    8    9 1
  16    8   10 am
  17    9   25 1
  18    9   26 1
  19   10   11 2
  20   10   12 1
  21   12   13 1
  22   13   17 1
  23   13   18 1
  24   13   19 1
  25   14   16 1
  26   15   16 1
  27   15   27 1
  28   15   28 1
  29   15   29 1
  30   16   30 1
  31   16   31 1
  32   17   32 1
  33   17   33 1
  34   17   34 1
  35   18   35 1
  36   18   36 1
  37   18   37 1
  38   19   38 1
  39   19   39 1
  40   19   40 1

#	End of record

