#	Name: ASD01915759
#	Creating user name:	WinNT
#	Creation time:	15. 06. 2019 20:06

#	Modifying user name:	WinNT
#	Modification time:	15. 06. 2019 20:06

#	Program:	/corina/corina34_cracker 3.40 0067  02.08.2006

@<TRIPOS>MOLECULE
ASD01915759
  41   44    0    0    0
SMALL
NO_CHARGES


@<TRIPOS>ATOM
   1 C1            -0.0043     1.4701     0.2345 C.2     
   2 N2             0.0663     0.1192    -0.0302 N.pl3   
   3 C3            -1.1430    -0.6636    -0.3123 C.3     
   4 C4            -2.3278    -0.0473     0.4298 C.3     
   5 N5            -2.4034     1.3999     0.2631 N.am    
   6 C6            -1.2923     2.1752     0.2856 C.2     
   7 C7             1.2777     1.9073     0.4252 C.2     
   8 C8             2.0767     0.7644     0.2728 C.2     
   9 N9             1.2865    -0.2501     0.0106 N.2     
  10 C10            3.5783     0.7111     0.3892 C.3     
  11 O11            3.9417     0.4406     1.7445 O.3     
  12 C12            5.2694     0.3594     2.0228 C.ar    
  13 O13           -1.3577     3.3886     0.3445 O.2     
  14 C14            5.6932     0.0994     3.3179 C.ar    
  15 C15            6.2031     0.5308     1.0111 C.ar    
  16 C16            7.5522     0.4478     1.2966 C.ar    
  17 C17            7.9722     0.1942     2.5893 C.ar    
  18 C18            7.0434     0.0174     3.5982 C.ar    
  19 C19           -3.6527     2.0017     0.0751 C.ar    
  20 C20           -3.9641     2.5918    -1.1429 C.ar    
  21 Cl21           1.8017     3.5241     0.7788 Cl      
  22 C22           -4.5851     2.0046     1.1042 C.ar    
  23 C23           -5.8175     2.5991     0.9165 C.ar    
  24 C24           -6.1239     3.1916    -0.2970 C.ar    
  25 C25           -5.1976     3.1852    -1.3263 C.ar    
  26 F26           -7.3304     3.7718    -0.4788 F       
  27 H27           -1.3405    -0.6546    -1.3842 H       
  28 H28           -0.9980    -1.6906     0.0229 H       
  29 H29           -3.2488    -0.4936     0.0549 H       
  30 H30           -2.2353    -0.2752     1.4917 H       
  31 H31            3.9648    -0.0786    -0.2551 H       
  32 H32            4.0006     1.6684     0.0838 H       
  33 H33            4.9682    -0.0384     4.1064 H       
  34 H34            5.8756     0.7285     0.0011 H       
  35 H35            8.2795     0.5808     0.5093 H       
  36 H36            9.0273     0.1298     2.8105 H       
  37 H37            7.3740    -0.1802     4.6073 H       
  38 H38           -3.2419     2.5871    -1.9459 H       
  39 H39           -4.3468     1.5420     2.0506 H       
  40 H40           -6.5429     2.6016     1.7167 H       
  41 H41           -5.4385     3.6482    -2.2719 H       
@<TRIPOS>BOND
   1    1    2 1
   2    1    7 2
   3    1    6 1
   4    2    3 1
   5    2    9 1
   6    3    4 1
   7    3   27 1
   8    3   28 1
   9    4    5 1
  10    4   29 1
  11    4   30 1
  12    5    6 am
  13    5   19 1
  14    6   13 2
  15    7    8 1
  16    7   21 1
  17    8    9 2
  18    8   10 1
  19   10   11 1
  20   10   31 1
  21   10   32 1
  22   11   12 1
  23   12   14 ar
  24   12   15 ar
  25   14   18 ar
  26   14   33 1
  27   15   16 ar
  28   15   34 1
  29   16   17 ar
  30   16   35 1
  31   17   18 ar
  32   17   36 1
  33   18   37 1
  34   19   22 ar
  35   19   20 ar
  36   20   25 ar
  37   20   38 1
  38   22   23 ar
  39   22   39 1
  40   23   24 ar
  41   23   40 1
  42   24   25 ar
  43   24   26 1
  44   25   41 1

#	End of record

