#	Name: ASD05720251
#	Creating user name:	WinNT
#	Creation time:	15. 06. 2019 21:02

#	Modifying user name:	WinNT
#	Modification time:	15. 06. 2019 21:02

#	Program:	/corina/corina34_cracker 3.40 0067  02.08.2006

@<TRIPOS>MOLECULE
ASD05720251
  61   65    0    0    0
SMALL
NO_CHARGES


@<TRIPOS>ATOM
   1 C1             0.5119     1.0237     1.1164 C.2     
   2 N2             0.4122    -0.2391     0.6808 N.am    
   3 C3             1.6580    -0.6134    -0.0049 C.3     
   4 C4             2.5297     0.6535     0.0955 C.3     
   5 N5             1.6824     1.6071     0.8270 N.am    
   6 O6            -0.3811     1.5906     1.7157 O.2     
   7 C7             1.3817    -0.9606    -1.4691 C.3     
   8 C8             0.5224    -2.2245    -1.5401 C.3     
   9 C9             0.6397     0.1988    -2.1369 C.3     
  10 C10            2.0587     2.9775     1.1828 C.3     
  11 C11            2.7352     2.9807     2.5551 C.3     
  12 C12           -1.6778    -3.1433     0.6617 C.2     
  13 N13           -0.6243    -2.3357     0.5053 N.2     
  14 C14           -0.6921    -1.0636     0.8499 C.2     
  15 C15           -1.8851    -0.5415     1.3900 C.2     
  16 C16           -2.9530    -1.3558     1.5497 C.2     
  17 N17           -2.8523    -2.6692     1.1834 N.pl3   
  18 N18           -3.7636    -3.7303     1.2267 N.2     
  19 C19           -3.1914    -4.8116     0.7573 C.2     
  20 C20           -1.8788    -4.5014     0.3811 C.2     
  21 C21           -0.8882    -5.4341    -0.2016 C.ar    
  22 C22           -0.6489    -6.6680     0.4062 C.ar    
  23 C23            0.2725    -7.5353    -0.1368 C.ar    
  24 C24            0.9670    -7.1812    -1.2934 C.ar    
  25 C25            0.7285    -5.9487    -1.9011 C.ar    
  26 C26           -0.1968    -5.0827    -1.3625 C.ar    
  27 N27            3.4781    -9.0331    -3.1490 N.pl3   
  28 N28            2.6749    -7.8969    -2.9593 N.2     
  29 C29            1.9599    -8.1156    -1.8770 C.2     
  30 N30            2.2776    -9.3227    -1.3893 N.2     
  31 C31            3.1866    -9.8797    -2.1451 C.2     
  32 C32            4.7070     2.1545     3.6083 C.2     
  33 C33            6.0158     1.4075     3.6070 C.3     
  34 O34            4.3071     2.6708     4.6248 O.2     
  35 O35            3.9855     2.2462     2.4801 O.3     
  36 F36            6.5781     1.4497     4.8873 F       
  37 F37            5.7926     0.0762     3.2394 F       
  38 F38            6.8918     2.0030     2.6931 F       
  39 H39            2.1383    -1.4495     0.5036 H       
  40 H40            3.4427     0.4464     0.6537 H       
  41 H41            2.7656     1.0352    -0.8979 H       
  42 H42            2.3257    -1.1336    -1.9859 H       
  43 H43           -0.4947    -1.9904    -1.2258 H       
  44 H44            0.5093    -2.5979    -2.5641 H       
  45 H45            0.9403    -2.9855    -0.8812 H       
  46 H46           -0.3043     0.3718    -1.6201 H       
  47 H47            1.2519     1.0992    -2.0863 H       
  48 H48            0.4428    -0.0485    -3.1801 H       
  49 H49            2.7493     3.3700     0.4364 H       
  50 H50            1.1662     3.6023     1.2162 H       
  51 H51            2.9351     4.0081     2.8593 H       
  52 H52            2.0787     2.5069     3.2849 H       
  53 H53           -1.9455     0.4988     1.6739 H       
  54 H54           -3.8748    -0.9730     1.9622 H       
  55 H55           -3.6570    -5.7823     0.6714 H       
  56 H56           -1.1861    -6.9420     1.3021 H       
  57 H57            0.4577    -8.4899     0.3333 H       
  58 H58            1.2666    -5.6751    -2.7966 H       
  59 H59           -0.3844    -4.1301    -1.8354 H       
  60 H60            4.1151    -9.1803    -3.8656 H       
  61 H61            3.6281   -10.8531    -1.9903 H       
@<TRIPOS>BOND
   1    1    2 am
   2    1    5 am
   3    1    6 2
   4    2    3 1
   5    2   14 1
   6    3    4 1
   7    3    7 1
   8    3   39 1
   9    4    5 1
  10    4   40 1
  11    4   41 1
  12    5   10 1
  13    7    8 1
  14    7    9 1
  15    7   42 1
  16    8   43 1
  17    8   44 1
  18    8   45 1
  19    9   46 1
  20    9   47 1
  21    9   48 1
  22   10   11 1
  23   10   49 1
  24   10   50 1
  25   11   35 1
  26   11   51 1
  27   11   52 1
  28   12   13 1
  29   12   17 1
  30   12   20 2
  31   13   14 2
  32   14   15 1
  33   15   16 2
  34   15   53 1
  35   16   17 1
  36   16   54 1
  37   17   18 1
  38   18   19 2
  39   19   20 1
  40   19   55 1
  41   20   21 1
  42   21   22 ar
  43   21   26 ar
  44   22   23 ar
  45   22   56 1
  46   23   24 ar
  47   23   57 1
  48   24   25 ar
  49   24   29 1
  50   25   26 ar
  51   25   58 1
  52   26   59 1
  53   27   28 1
  54   27   31 1
  55   27   60 1
  56   28   29 2
  57   29   30 1
  58   30   31 2
  59   31   61 1
  60   32   33 1
  61   32   34 2
  62   32   35 1
  63   33   36 1
  64   33   37 1
  65   33   38 1

#	End of record

