#	Name: ASD04560010
#	Creating user name:	WinNT
#	Creation time:	15. 06. 2019 20:49

#	Modifying user name:	WinNT
#	Modification time:	15. 06. 2019 20:49

#	Program:	/corina/corina34_cracker 3.40 0067  02.08.2006

@<TRIPOS>MOLECULE
ASD04560010
  47   49    0    0    0
SMALL
NO_CHARGES


@<TRIPOS>ATOM
   1 C1             0.4776     1.9301    -0.2269 C.ar    
   2 C2             0.3952     0.5660    -0.1180 C.ar    
   3 C3             1.5546    -0.2061    -0.1257 C.ar    
   4 C4             2.8009     0.4051    -0.2435 C.ar    
   5 C5             2.8896     1.7687    -0.3527 C.ar    
   6 C6             1.7273     2.5464    -0.3458 C.ar    
   7 C7             1.8193     4.0133    -0.4636 C.2     
   8 O8             2.9067     4.5480    -0.5669 O.2     
   9 N9             0.6983     4.7615    -0.4568 N.am    
  10 C10            0.7892     6.1581    -0.4580 C.ar    
  11 C11           -0.1604     6.9161    -1.1306 C.ar    
  12 C12            1.9135     8.1664     0.2156 C.ar    
  13 C13            1.8257     6.7881     0.2181 C.ar    
  14 F14            1.0566    10.2683    -0.4617 F       
  15 S15            1.4447    -1.9590     0.0145 S.3     
  16 C16            3.1804    -2.4829    -0.0453 C.3     
  17 C17           -0.0688     8.2942    -1.1305 C.ar    
  18 C18            0.9688     8.9201    -0.4605 C.ar    
  19 C19            3.2573    -4.0068     0.0667 C.3     
  20 C20            4.6992    -4.4420     0.0170 C.ar    
  21 C21            5.2773    -4.7831    -1.1890 C.ar    
  22 C22            5.4525    -4.4951     1.1873 C.ar    
  23 C23            6.7851    -4.8978     1.1346 C.ar    
  24 C24            7.3521    -5.2417    -0.0754 C.ar    
  25 C25            6.6009    -5.1822    -1.2359 C.ar    
  26 B26            4.8022    -4.1021     2.5612 Du      
  27 O27            3.6609    -3.2577     2.5907 O.3     
  28 S28            5.5110    -4.7289     4.1159 S.3     
  29 H29           -0.4219     2.5278    -0.2254 H       
  30 H30           -0.5696     0.0895    -0.0259 H       
  31 H31            3.6982    -0.1960    -0.2485 H       
  32 H32            3.8561     2.2420    -0.4437 H       
  33 H33           -0.1714     4.3321    -0.4510 H       
  34 H34           -0.9696     6.4283    -1.6536 H       
  35 H35            2.7195     8.6567     0.7413 H       
  36 H36            2.5625     6.2007     0.7458 H       
  37 H37            3.6235    -2.1650    -0.9890 H       
  38 H38            3.7253    -2.0297     0.7829 H       
  39 H39           -0.8069     8.8840    -1.6538 H       
  40 H40            2.8141    -4.3246     1.0104 H       
  41 H41            2.7123    -4.4599    -0.7615 H       
  42 H42            4.6951    -4.7386    -2.0976 H       
  43 H43            7.3735    -4.9403     2.0393 H       
  44 H44            8.3851    -5.5540    -0.1173 H       
  45 H45            7.0484    -5.4522    -2.1811 H       
  46 H46            3.3322    -3.0717     3.4809 H       
  47 H47            4.6299    -4.1357     5.0433 H       
@<TRIPOS>BOND
   1    1    2 ar
   2    1    6 ar
   3    1   29 1
   4    2    3 ar
   5    2   30 1
   6    3    4 ar
   7    3   15 1
   8    4    5 ar
   9    4   31 1
  10    5    6 ar
  11    5   32 1
  12    6    7 1
  13    7    8 2
  14    7    9 am
  15    9   10 1
  16    9   33 1
  17   10   11 ar
  18   10   13 ar
  19   11   17 ar
  20   11   34 1
  21   12   13 ar
  22   12   18 ar
  23   12   35 1
  24   13   36 1
  25   14   18 1
  26   15   16 1
  27   16   19 1
  28   16   37 1
  29   16   38 1
  30   17   18 ar
  31   17   39 1
  32   19   20 1
  33   19   40 1
  34   19   41 1
  35   20   21 ar
  36   20   22 ar
  37   21   25 ar
  38   21   42 1
  39   22   23 ar
  40   22   26 1
  41   23   24 ar
  42   23   43 1
  43   24   25 ar
  44   24   44 1
  45   25   45 1
  46   26   27 1
  47   26   28 1
  48   27   46 1
  49   28   47 1

#	End of record

