#	Name: ASD04590016
#	Creating user name:	WinNT
#	Creation time:	15. 06. 2019 20:50

#	Modifying user name:	WinNT
#	Modification time:	15. 06. 2019 20:50

#	Program:	/corina/corina34_cracker 3.40 0067  02.08.2006

@<TRIPOS>MOLECULE
ASD04590016
  59   63    0    0    0
SMALL
NO_CHARGES


@<TRIPOS>ATOM
   1 C1            -0.0086     1.3457     0.2627 C.ar    
   2 C2            -0.0046     0.0445    -0.2246 C.ar    
   3 C3             1.1920     2.0069     0.4815 C.ar    
   4 C4             2.3926     1.3655     0.2125 C.ar    
   5 C5             2.3895     0.0638    -0.2748 C.ar    
   6 C6             1.1928    -0.5913    -0.4914 C.ar    
   7 N7             3.6030     2.0274     0.4308 N.3     
   8 C8             4.7437     1.1681     0.0819 C.3     
   9 C9             3.7065     2.4910     1.8221 C.3     
  10 C10            5.0177     3.2607     2.0016 C.3     
  11 O11            6.1130     2.4203     1.6281 O.3     
  12 C12            6.0445     1.9511     0.2788 C.3     
  13 N13           -1.2195     1.9897     0.5267 N.pl3   
  14 C14           -1.2287     3.4027     0.9133 C.3     
  15 C15           -1.2070     4.2754    -0.3432 C.3     
  16 C16           -2.4933     3.7024     1.7207 C.3     
  17 C17           -2.5028     5.1781     2.1245 C.3     
  18 C18           -3.7675     5.4778     2.9318 C.3     
  19 C19           -5.0009     5.1745     2.0788 C.3     
  20 C20           -4.9914     3.6987     1.6750 C.3     
  21 C21           -3.7267     3.3991     0.8677 C.3     
  22 C22           -5.0130     2.8260     2.9315 C.3     
  23 C23           -3.7796     3.1293     3.7845 C.3     
  24 C24           -2.5150     2.8297     2.9772 C.3     
  25 C25           -3.7892     4.6051     4.1883 C.3     
  26 N26           -1.2844    -0.6615    -0.4577 N.pl3   
  27 O27           -1.3752    -1.8524    -0.2190 O.2     
  28 O28           -2.2467    -0.0515    -0.8883 O.2     
  29 H29            1.1917     3.0184     0.8599 H       
  30 H30            3.3237    -0.4360    -0.4843 H       
  31 H31            1.1932    -1.6029    -0.8698 H       
  32 H32            4.7473     0.2886     0.7257 H       
  33 H33            4.6601     0.8574    -0.9596 H       
  34 H34            2.8658     3.1459     2.0510 H       
  35 H35            3.6935     1.6326     2.4937 H       
  36 H36            5.0081     4.1486     1.3694 H       
  37 H37            5.1258     3.5572     3.0449 H       
  38 H38            6.8952     1.3005     0.0762 H       
  39 H39            6.0647     2.8009    -0.4035 H       
  40 H40           -2.0545     1.5013     0.4540 H       
  41 H41           -0.3500     3.6188     1.5210 H       
  42 H42           -1.2138     5.3268    -0.0555 H       
  43 H43           -0.3060     4.0619    -0.9183 H       
  44 H44           -2.0857     4.0593    -0.9508 H       
  45 H45           -1.6241     5.3942     2.7321 H       
  46 H46           -2.4874     5.7999     1.2293 H       
  47 H47           -3.7743     6.5291     3.2195 H       
  48 H48           -5.9019     5.3879     2.6540 H       
  49 H49           -4.9855     5.7962     1.1837 H       
  50 H50           -5.8701     3.4826     1.0673 H       
  51 H51           -3.7113     4.0208    -0.0275 H       
  52 H52           -3.7199     2.3477     0.5800 H       
  53 H53           -5.9140     3.0395     3.5067 H       
  54 H54           -5.0062     1.7747     2.6438 H       
  55 H55           -3.7951     2.5076     4.6796 H       
  56 H56           -2.5082     1.7783     2.6895 H       
  57 H57           -1.6363     3.0458     3.5848 H       
  58 H58           -2.9105     4.8212     4.7960 H       
  59 H59           -4.6901     4.8186     4.7635 H       
@<TRIPOS>BOND
   1    1    2 ar
   2    1    3 ar
   3    1   13 1
   4    2   26 1
   5    2    6 ar
   6    3    4 ar
   7    3   29 1
   8    4    5 ar
   9    4    7 1
  10    5    6 ar
  11    5   30 1
  12    6   31 1
  13    7    8 1
  14    7    9 1
  15    8   12 1
  16    8   32 1
  17    8   33 1
  18    9   10 1
  19    9   34 1
  20    9   35 1
  21   10   11 1
  22   10   36 1
  23   10   37 1
  24   11   12 1
  25   12   38 1
  26   12   39 1
  27   13   14 1
  28   13   40 1
  29   14   15 1
  30   14   16 1
  31   14   41 1
  32   15   42 1
  33   15   43 1
  34   15   44 1
  35   16   17 1
  36   16   24 1
  37   16   21 1
  38   17   18 1
  39   17   45 1
  40   17   46 1
  41   18   19 1
  42   18   25 1
  43   18   47 1
  44   19   20 1
  45   19   48 1
  46   19   49 1
  47   20   21 1
  48   20   22 1
  49   20   50 1
  50   21   51 1
  51   21   52 1
  52   22   23 1
  53   22   53 1
  54   22   54 1
  55   23   24 1
  56   23   25 1
  57   23   55 1
  58   24   56 1
  59   24   57 1
  60   25   58 1
  61   25   59 1
  62   26   27 2
  63   26   28 2

#	End of record

