#	Name: ASD03731071
#	Creating user name:	WinNT
#	Creation time:	15. 06. 2019 20:45

#	Modifying user name:	WinNT
#	Modification time:	15. 06. 2019 20:45

#	Program:	/corina/corina34_cracker 3.40 0067  02.08.2006

@<TRIPOS>MOLECULE
ASD03731071
  67   71    0    0    0
SMALL
NO_CHARGES


@<TRIPOS>ATOM
   1 O1            -0.4446     1.3608    -0.3819 O.3     
   2 C2            -0.5118    -0.0753    -0.4613 C.3     
   3 O3             0.6935    -0.4365    -1.1609 O.3     
   4 C4             1.5867     0.5602    -0.8891 C.ar    
   5 C5             0.8863     1.6653    -0.4112 C.ar    
   6 C6             2.9635     0.6142    -1.0122 C.ar    
   7 C7             3.6578     1.7685    -0.6628 C.ar    
   8 C8             2.9464     2.8689    -0.1944 C.ar    
   9 C9             1.5742     2.8161    -0.0646 C.ar    
  10 O10            4.9975     2.0220    -0.6911 O.3     
  11 C11            3.9571     3.9533     0.0669 C.3     
  12 C12            5.2124     3.4461    -0.6560 C.3     
  13 N13            3.5020     6.1306     0.5927 N.am    
  14 C14            3.5089     5.2867    -0.4584 C.2     
  15 C15            4.2016     4.1646     1.5316 C.ar    
  16 C16            4.6223     3.3434     2.5539 C.ar    
  17 C17            4.7550     3.8458     3.8361 C.ar    
  18 C18            4.4642     5.1741     4.0883 C.ar    
  19 C19            4.0417     6.0005     3.0679 C.ar    
  20 C20            3.9055     5.5034     1.7740 C.ar    
  21 O21            3.2117     5.5524    -1.6039 O.2     
  22 C22            3.1171     7.5415     0.5062 C.3     
  23 N23           -0.9726     8.6084    -0.1303 N.3     
  24 C24           -0.2827     9.2853     0.9752 C.3     
  25 C25            1.2308     9.1582     0.7878 C.3     
  26 C26            1.6133     7.6760     0.7542 C.3     
  27 C27            0.8446     6.9841    -0.3750 C.3     
  28 C28           -0.6577     7.1743    -0.1540 C.3     
  29 C29           -2.4234     8.8276    -0.0585 C.3     
  30 C30           -3.0758     8.3538    -1.3588 C.3     
  31 C31           -2.5916     9.2253    -2.5194 C.3     
  32 C32           -3.0008     8.0390     1.1186 C.3     
  33 C33           -4.4823     8.3827     1.2850 C.3     
  34 H34           -0.5214    -0.5140     0.5365 H       
  35 H35           -1.3904    -0.3869    -1.0262 H       
  36 H36            3.5031    -0.2453    -1.3816 H       
  37 H37            1.0349     3.6745     0.3077 H       
  38 H38            6.1107     3.6883    -0.0881 H       
  39 H39            5.2694     3.8540    -1.6652 H       
  40 H40            4.8484     2.3063     2.3546 H       
  41 H41            5.0846     3.2021     4.6382 H       
  42 H42            4.5681     5.5663     5.0892 H       
  43 H43            3.8157     7.0365     3.2730 H       
  44 H44            3.6618     8.1134     1.2574 H       
  45 H45            3.3573     7.9235    -0.4860 H       
  46 H46           -0.5602    10.3394     0.9853 H       
  47 H47           -0.5717     8.8248     1.9199 H       
  48 H48            1.5223     9.6307    -0.1502 H       
  49 H49            1.7424     9.6473     1.6168 H       
  50 H50            1.3583     7.2122     1.7071 H       
  51 H51            1.1301     7.4224    -1.3313 H       
  52 H52            1.0804     5.9199    -0.3769 H       
  53 H53           -0.9449     6.7236     0.7961 H       
  54 H54           -1.2075     6.6950    -0.9640 H       
  55 H55           -2.6238     9.8897     0.0825 H       
  56 H56           -2.8019     7.3154    -1.5454 H       
  57 H57           -4.1593     8.4338    -1.2719 H       
  58 H58           -3.0564     8.8878    -3.4458 H       
  59 H59           -2.8655    10.2637    -2.3329 H       
  60 H60           -1.5080     9.1454    -2.6064 H       
  61 H61           -2.8947     6.9712     0.9274 H       
  62 H62           -2.4626     8.3002     2.0298 H       
  63 H63           -4.5856     9.4426     1.5176 H       
  64 H64           -5.0131     8.1604     0.3592 H       
  65 H65           -4.9039     7.7898     2.0968 H       
  66 Cl66          11.1107    15.3394    10.0892 Cl      
  67 H67           11.1107    16.7094    10.0892 H       
@<TRIPOS>BOND
   1    1    2 1
   2    1    5 1
   3    2    3 1
   4    2   34 1
   5    2   35 1
   6    3    4 1
   7    4    5 ar
   8    4    6 ar
   9    5    9 ar
  10    6    7 ar
  11    6   36 1
  12    7    8 ar
  13    7   10 1
  14    8    9 ar
  15    8   11 1
  16    9   37 1
  17   10   12 1
  18   11   12 1
  19   11   14 1
  20   11   15 1
  21   12   38 1
  22   12   39 1
  23   13   14 am
  24   13   20 1
  25   13   22 1
  26   14   21 2
  27   15   16 ar
  28   15   20 ar
  29   16   17 ar
  30   16   40 1
  31   17   18 ar
  32   17   41 1
  33   18   19 ar
  34   18   42 1
  35   19   20 ar
  36   19   43 1
  37   22   26 1
  38   22   44 1
  39   22   45 1
  40   23   24 1
  41   23   28 1
  42   23   29 1
  43   24   25 1
  44   24   46 1
  45   24   47 1
  46   25   26 1
  47   25   48 1
  48   25   49 1
  49   26   27 1
  50   26   50 1
  51   27   28 1
  52   27   51 1
  53   27   52 1
  54   28   53 1
  55   28   54 1
  56   29   30 1
  57   29   32 1
  58   29   55 1
  59   30   31 1
  60   30   56 1
  61   30   57 1
  62   31   58 1
  63   31   59 1
  64   31   60 1
  65   32   33 1
  66   32   61 1
  67   32   62 1
  68   33   63 1
  69   33   64 1
  70   33   65 1
  71   66   67 1

#	End of record

