#	Name: ASD00840730
#	Creating user name:	WinNT
#	Creation time:	15. 06. 2019 18:39

#	Modifying user name:	WinNT
#	Modification time:	15. 06. 2019 18:39

#	Program:	/corina/corina34_cracker 3.40 0067  02.08.2006

@<TRIPOS>MOLECULE
ASD00840730
  91   96    0    0    0
SMALL
NO_CHARGES


@<TRIPOS>ATOM
   1 F1             6.0628    -1.9834    -1.9872 F       
   2 N2             1.0518     1.4393    -0.7561 N.ar    
   3 C3             1.3115     0.1465    -0.8568 C.ar    
   4 C4             1.2294    -0.6807     0.2563 C.ar    
   5 C5             0.8713    -0.1344     1.4762 C.ar    
   6 C6             0.6067     1.2270     1.5398 C.ar    
   7 C7             0.7079     1.9890     0.3932 C.ar    
   8 C8             1.5258    -2.1535     0.1367 C.3     
   9 C9             1.2340    -2.8609     1.4429 C.2     
  10 C10            0.7115    -2.7720    -1.0013 C.3     
  11 C11           -0.7505    -2.4703    -0.7946 C.2     
  12 N12           -1.6711    -2.9942    -1.6280 N.am    
  13 O13           -1.0986    -1.7560     0.1216 O.2     
  14 C14           -3.0907    -2.6278    -1.5109 C.3     
  15 C15           -3.5973    -2.1958    -2.8911 C.3     
  16 N16           -3.3073    -3.2531    -3.8688 N.3     
  17 C17           -1.8606    -3.4633    -4.0128 C.3     
  18 C18           -1.2818    -3.9427    -2.6826 C.3     
  19 C19           -3.9277    -2.9548    -5.1665 C.3     
  20 C20           -3.5028    -4.0100    -6.1914 C.3     
  21 C21           -4.2000    -3.7291    -7.5245 C.3     
  22 N22           -5.6556    -3.7641    -7.3340 N.3     
  23 C23           -6.0926    -2.7281    -6.3895 C.3     
  24 C24           -5.4519    -2.9791    -5.0225 C.3     
  25 H25           -6.1379    -3.6761    -8.2159 H       
  26 O26            0.1583    -2.9328     1.9986 O.2     
  27 N27            2.3905    -3.3948     1.8707 N.am    
  28 C28            3.0040    -2.3799    -0.0822 C.ar    
  29 C29            3.4488    -3.1310     0.9987 C.ar    
  30 C30            3.8718    -1.9956    -1.0794 C.ar    
  31 C31            5.2075    -2.3587    -1.0111 C.ar    
  32 C32            5.6627    -3.1077     0.0621 C.ar    
  33 C33            4.7923    -3.4932     1.0623 C.ar    
  34 Cl34           7.3355    -3.5637     0.1496 Cl      
  35 C35            2.2499    -5.9553     2.8702 C.ar    
  36 C36            0.9972    -6.3552     2.4274 C.ar    
  37 C37            3.2691    -6.8806     2.9912 C.ar    
  38 C38            3.0439    -8.2056     2.6715 C.ar    
  39 C39            1.7926    -8.6107     2.2281 C.ar    
  40 C40            0.7685    -7.6846     2.1063 C.ar    
  41 O41            1.5715    -9.9143     1.9142 O.3     
  42 O42           -0.0049    -5.4449     2.3090 O.3     
  43 C43            2.6721   -10.8133     2.0641 C.3     
  44 C44           -1.2683    -5.9272     1.8473 C.3     
  45 C45           -2.2631    -4.7668     1.7789 C.3     
  46 S46            2.5433    -4.2649     3.2715 S.o2    
  47 O47            3.9091    -4.1743     3.6530 O.2     
  48 O48            1.4726    -3.8607     4.1137 O.2     
  49 O49            1.6611    -0.3771    -2.0586 O.3     
  50 C50            2.1550    -0.2278    -4.4196 C.3     
  51 C51            1.6192     0.5007    -3.1855 C.3     
  52 H52            0.7989    -0.7530     2.3585 H       
  53 H53            0.3243     1.6849     2.4763 H       
  54 H54            0.5035     3.0486     0.4374 H       
  55 H55            1.0384    -2.3514    -1.9523 H       
  56 H56            0.8619    -3.8516    -1.0107 H       
  57 H57           -3.6633    -3.4878    -1.1634 H       
  58 H58           -3.1991    -1.8032    -0.8064 H       
  59 H59           -4.6732    -2.0264    -2.8470 H       
  60 H60           -3.0959    -1.2756    -3.1909 H       
  61 H61           -1.6768    -4.2132    -4.7822 H       
  62 H62           -1.3833    -2.5255    -4.2971 H       
  63 H63           -0.1951    -3.9899    -2.7519 H       
  64 H64           -1.6796    -4.9292    -2.4445 H       
  65 H65           -3.6085    -1.9690    -5.5048 H       
  66 H66           -2.4224    -3.9685    -6.3299 H       
  67 H67           -3.7867    -4.9998    -5.8338 H       
  68 H68           -3.9049    -2.7449    -7.8883 H       
  69 H69           -3.9106    -4.4870    -8.2525 H       
  70 H70           -5.7886    -1.7485    -6.7586 H       
  71 H71           -7.1779    -2.7589    -6.2931 H       
  72 H72           -5.7665    -3.9527    -4.6465 H       
  73 H73           -5.7641    -2.2011    -4.3259 H       
  74 H74            3.5120    -1.4121    -1.9140 H       
  75 H75            5.1540    -4.0770     1.8958 H       
  76 H76            4.2435    -6.5674     3.3360 H       
  77 H77            3.8422    -8.9268     2.7662 H       
  78 H78           -0.2060    -7.9979     1.7618 H       
  79 H79            3.4930   -10.4928     1.4226 H       
  80 H80            3.0017   -10.8141     3.1030 H       
  81 H81            2.3610   -11.8189     1.7808 H       
  82 H82           -1.1502    -6.3635     0.8554 H       
  83 H83           -1.6413    -6.6855     2.5357 H       
  84 H84           -2.3812    -4.3305     2.7707 H       
  85 H85           -1.8901    -4.0085     1.0904 H       
  86 H86           -3.2268    -5.1347     1.4267 H       
  87 H87            3.1518    -0.6152    -4.2086 H       
  88 H88            1.4900    -1.0540    -4.6712 H       
  89 H89            2.2051     0.4666    -5.2583 H       
  90 H90            0.5902     0.8118    -3.3656 H       
  91 H91            2.2344     1.3780    -2.9858 H       
@<TRIPOS>BOND
   1    1   31 1
   2    2    3 ar
   3    2    7 ar
   4    3    4 ar
   5    3   49 1
   6    4    5 ar
   7    4    8 1
   8    5    6 ar
   9    5   52 1
  10    6    7 ar
  11    6   53 1
  12    7   54 1
  13    8    9 1
  14    8   10 1
  15    8   28 1
  16    9   26 2
  17    9   27 am
  18   10   11 1
  19   10   55 1
  20   10   56 1
  21   11   12 am
  22   11   13 2
  23   12   14 1
  24   12   18 1
  25   14   15 1
  26   14   57 1
  27   14   58 1
  28   15   16 1
  29   15   59 1
  30   15   60 1
  31   16   17 1
  32   16   19 1
  33   17   18 1
  34   17   61 1
  35   17   62 1
  36   18   63 1
  37   18   64 1
  38   19   20 1
  39   19   24 1
  40   19   65 1
  41   20   21 1
  42   20   66 1
  43   20   67 1
  44   21   22 1
  45   21   68 1
  46   21   69 1
  47   22   23 1
  48   22   25 1
  49   23   24 1
  50   23   70 1
  51   23   71 1
  52   24   72 1
  53   24   73 1
  54   27   46 am
  55   27   29 1
  56   28   29 ar
  57   28   30 ar
  58   29   33 ar
  59   30   31 ar
  60   30   74 1
  61   31   32 ar
  62   32   33 ar
  63   32   34 1
  64   33   75 1
  65   35   36 ar
  66   35   37 ar
  67   35   46 1
  68   36   42 1
  69   36   40 ar
  70   37   38 ar
  71   37   76 1
  72   38   39 ar
  73   38   77 1
  74   39   40 ar
  75   39   41 1
  76   40   78 1
  77   41   43 1
  78   42   44 1
  79   43   79 1
  80   43   80 1
  81   43   81 1
  82   44   45 1
  83   44   82 1
  84   44   83 1
  85   45   84 1
  86   45   85 1
  87   45   86 1
  88   46   47 2
  89   46   48 2
  90   49   51 1
  91   50   51 1
  92   50   87 1
  93   50   88 1
  94   50   89 1
  95   51   90 1
  96   51   91 1

#	End of record

