#	Name: ASD01915522
#	Creating user name:	WinNT
#	Creation time:	15. 06. 2019 20:05

#	Modifying user name:	WinNT
#	Modification time:	15. 06. 2019 20:05

#	Program:	/corina/corina34_cracker 3.40 0067  02.08.2006

@<TRIPOS>MOLECULE
ASD01915522
  43   46    0    0    0
SMALL
NO_CHARGES


@<TRIPOS>ATOM
   1 C1            -0.0042     1.4683     0.2336 C.2     
   2 N2             0.0659     0.1186    -0.0300 N.pl3   
   3 C3            -1.1434    -0.6644    -0.3115 C.3     
   4 C4            -2.3281    -0.0484     0.4310 C.3     
   5 N5            -2.4044     1.3988     0.2637 N.am    
   6 C6            -1.2934     2.1741     0.2849 C.2     
   7 C7             1.2764     1.9056     0.4235 C.2     
   8 C8             2.0758     0.7646     0.2720 C.2     
   9 N9             1.2861    -0.2510     0.0106 N.2     
  10 C10            3.5774     0.7126     0.3883 C.3     
  11 O11            4.0780     2.0188     0.6806 O.3     
  12 C12            5.4239     2.1471     0.8183 C.ar    
  13 C13           -3.6534     1.9998     0.0767 C.ar    
  14 O14           -1.3587     3.3874     0.3428 O.2     
  15 C15            5.9782     3.3867     1.1025 C.ar    
  16 C16            6.2454     1.0377     0.6807 C.ar    
  17 C17            7.6132     1.1708     0.8211 C.ar    
  18 C18            8.1637     2.4084     1.0986 C.ar    
  19 C19            7.3466     3.5146     1.2419 C.ar    
  20 C20           -3.9741     2.5994    -1.1386 C.ar    
  21 C21           -4.5944     2.0024     1.0985 C.ar    
  22 N22           -5.7726     2.5670     0.9255 N.ar    
  23 C23           -6.1050     3.1473    -0.2112 C.ar    
  24 C24           -5.2239     3.1812    -1.2758 C.ar    
  25 C25           -7.4667     3.7770    -0.3535 C.3     
  26 H26           -1.3413    -0.6555    -1.3833 H       
  27 H27           -0.9981    -1.6913     0.0237 H       
  28 H28           -3.2491    -0.4953     0.0567 H       
  29 H29           -2.2349    -0.2758     1.4929 H       
  30 H30            1.6018     2.9119     0.6427 H       
  31 H31            3.8563     0.0288     1.1900 H       
  32 H32            4.0027     0.3626    -0.5523 H       
  33 H33            5.3405     4.2512     1.2142 H       
  34 H34            5.8158     0.0707     0.4642 H       
  35 H35            8.2531     0.3073     0.7143 H       
  36 H36            9.2332     2.5104     1.2080 H       
  37 H37            7.7790     4.4803     1.4583 H       
  38 H38           -3.2659     2.6109    -1.9540 H       
  39 H39           -4.3583     1.5368     2.0439 H       
  40 H40           -5.5053     3.6588    -2.2027 H       
  41 H41           -7.4187     4.8207    -0.0426 H       
  42 H42           -7.7854     3.7223    -1.3945 H       
  43 H43           -8.1811     3.2436     0.2736 H       
@<TRIPOS>BOND
   1    1    2 1
   2    1    7 2
   3    1    6 1
   4    2    3 1
   5    2    9 1
   6    3    4 1
   7    3   26 1
   8    3   27 1
   9    4    5 1
  10    4   28 1
  11    4   29 1
  12    5    6 am
  13    5   13 1
  14    6   14 2
  15    7    8 1
  16    7   30 1
  17    8    9 2
  18    8   10 1
  19   10   11 1
  20   10   31 1
  21   10   32 1
  22   11   12 1
  23   12   15 ar
  24   12   16 ar
  25   13   20 ar
  26   13   21 ar
  27   15   19 ar
  28   15   33 1
  29   16   17 ar
  30   16   34 1
  31   17   18 ar
  32   17   35 1
  33   18   19 ar
  34   18   36 1
  35   19   37 1
  36   20   24 ar
  37   20   38 1
  38   21   22 ar
  39   21   39 1
  40   22   23 ar
  41   23   24 ar
  42   23   25 1
  43   24   40 1
  44   25   41 1
  45   25   42 1
  46   25   43 1

#	End of record

