#	Name: ASD01914251
#	Creating user name:	WinNT
#	Creation time:	15. 06. 2019 20:03

#	Modifying user name:	WinNT
#	Modification time:	15. 06. 2019 20:03

#	Program:	/corina/corina34_cracker 3.40 0067  02.08.2006

@<TRIPOS>MOLECULE
ASD01914251
  39   41    0    0    0
SMALL
NO_CHARGES


@<TRIPOS>ATOM
   1 C1            -0.0225     1.8097     0.0120 C.3     
   2 S2             0.0021    -0.0041     0.0020 S.o2    
   3 O3             0.8448    -0.4970     1.0346 O.2     
   4 O4            -1.3093    -0.5195    -0.1821 O.2     
   5 N5             0.7961    -0.3989    -1.3965 N.am    
   6 C6             2.1349    -0.0606    -1.5548 C.ar    
   7 C7             2.7950    -0.3963    -2.7338 C.ar    
   8 C8             4.1285    -0.0564    -2.8849 C.ar    
   9 C9             4.7648     0.6109    -1.8502 C.ar    
  10 C10            4.0474     0.9178    -0.6958 C.ar    
  11 N11            2.7661     0.5813    -0.5860 N.ar    
  12 C12            4.6946     1.6071     0.3797 C.1     
  13 C13            5.2252     2.1721     1.2614 C.1     
  14 C14            5.8906     2.8807     2.3669 C.3     
  15 C15            4.8941     3.0958     3.5078 C.3     
  16 N16            5.5903     5.0836     4.7145 N.2     
  17 N17            5.5562     3.8009     4.6081 N.pl3   
  18 N18            6.1658     3.2044     5.5725 N.2     
  19 C19            6.6532     4.1156     6.3991 C.ar    
  20 C20            6.2586     5.4042     5.8108 C.ar    
  21 C21            6.6339     6.5905     6.4654 C.ar    
  22 C22            7.3480     6.5207     7.6191 C.ar    
  23 C23            7.7228     5.2979     8.1771 C.ar    
  24 C24            7.3919     4.1157     7.5954 C.ar    
  25 H25            1.0001     2.1870     0.0043 H       
  26 H26           -0.5497     2.1708    -0.8711 H       
  27 H27           -0.5327     2.1613     0.9088 H       
  28 H28            0.3269    -0.8662    -2.1053 H       
  29 H29            2.2721    -0.9169    -3.5224 H       
  30 H30            4.6619    -0.3064    -3.7902 H       
  31 H31            5.8046     0.8895    -1.9375 H       
  32 H32            6.7310     2.2865     2.7257 H       
  33 H33            6.2527     3.8462     2.0139 H       
  34 H34            4.0537     3.6900     3.1490 H       
  35 H35            4.5319     2.1302     3.8608 H       
  36 H36            6.3570     7.5500     6.0541 H       
  37 H37            7.6332     7.4355     8.1171 H       
  38 H38            8.2907     5.2912     9.0958 H       
  39 H39            7.6942     3.1830     8.0483 H       
@<TRIPOS>BOND
   1    1    2 1
   2    1   25 1
   3    1   26 1
   4    1   27 1
   5    2    3 2
   6    2    4 2
   7    2    5 am
   8    5    6 1
   9    5   28 1
  10    6    7 ar
  11    6   11 ar
  12    7    8 ar
  13    7   29 1
  14    8    9 ar
  15    8   30 1
  16    9   10 ar
  17    9   31 1
  18   10   11 ar
  19   10   12 1
  20   12   13 3
  21   13   14 1
  22   14   15 1
  23   14   32 1
  24   14   33 1
  25   15   17 1
  26   15   34 1
  27   15   35 1
  28   16   17 1
  29   16   20 2
  30   17   18 1
  31   18   19 2
  32   19   20 ar
  33   19   24 ar
  34   20   21 ar
  35   21   22 ar
  36   21   36 1
  37   22   23 ar
  38   22   37 1
  39   23   24 ar
  40   23   38 1
  41   24   39 1

#	End of record

