#	Name: ASD01917521
#	Creating user name:	WinNT
#	Creation time:	15. 06. 2019 20:09

#	Modifying user name:	WinNT
#	Modification time:	15. 06. 2019 20:09

#	Program:	/corina/corina34_cracker 3.40 0067  02.08.2006

@<TRIPOS>MOLECULE
ASD01917521
  51   55    0    0    0
SMALL
NO_CHARGES


@<TRIPOS>ATOM
   1 C1            -0.0171     1.4093     0.0098 C.ar    
   2 C2             0.0021    -0.0041     0.0020 C.ar    
   3 C3            -1.1912    -0.7240     0.0401 C.ar    
   4 C4            -2.3837    -0.0599     0.0717 C.ar    
   5 C5            -2.4195     1.3394     0.0663 C.ar    
   6 C6            -1.2421     2.0755     0.0362 C.ar    
   7 N7             1.1594     2.0747     0.0021 N.2     
   8 C8             2.3196     1.4675    -0.0393 C.2     
   9 N9             2.4205     0.1195    -0.1563 N.am    
  10 C10            1.3109    -0.6632    -0.0613 C.2     
  11 O11            1.4023    -1.8767    -0.0295 O.2     
  12 C12           -3.7250     2.0415     0.0929 C.ar    
  13 C13            3.5352     2.3455     0.1019 C.3     
  14 C14            4.7919     1.6930    -0.4306 C.3     
  15 C15            4.8969     0.2370    -0.0257 C.3     
  16 C16            3.6802    -0.5619    -0.4347 C.3     
  17 C17            6.1354    -0.3731    -0.6852 C.3     
  18 C18            5.0562     0.1550     1.4938 C.3     
  19 N19           -3.7603     3.3640    -0.0128 N.ar    
  20 C20           -4.8946     4.0299     0.0054 C.ar    
  21 C21           -6.1112     3.3613     0.1382 C.ar    
  22 C22           -6.1129     1.9669     0.2521 C.ar    
  23 C23           -4.9012     1.3037     0.2229 C.ar    
  24 C24           -7.3860     4.1182     0.1588 C.ar    
  25 N25           -8.5268     3.4796     0.3853 N.ar    
  26 C26           -9.6805     4.1152     0.4118 C.ar    
  27 C27           -9.7439     5.4805     0.2030 C.ar    
  28 C28           -8.5740     6.1875    -0.0374 C.ar    
  29 C29           -7.3756     5.4955    -0.0541 C.ar    
  30 H30           -1.1723    -1.8038     0.0442 H       
  31 H31           -3.3073    -0.6190     0.1007 H       
  32 H32           -1.2749     3.1550     0.0322 H       
  33 H33            3.3635     3.2744    -0.4419 H       
  34 H34            3.6799     2.5793     1.1566 H       
  35 H35            4.7905     1.7583    -1.5186 H       
  36 H36            5.6592     2.2303    -0.0468 H       
  37 H37            3.6896    -1.5116     0.1002 H       
  38 H38            3.7388    -0.7652    -1.5039 H       
  39 H39            7.0243     0.1656    -0.3570 H       
  40 H40            6.2198    -1.4216    -0.3997 H       
  41 H41            6.0443    -0.2977    -1.7688 H       
  42 H42            4.1901     0.6096     1.9749 H       
  43 H43            5.1326    -0.8896     1.7953 H       
  44 H44            5.9592     0.6868     1.7937 H       
  45 H45           -4.8836     5.1062    -0.0832 H       
  46 H46           -7.0393     1.4216     0.3561 H       
  47 H47           -4.8649     0.2277     0.3082 H       
  48 H48          -10.5892     3.5622     0.5988 H       
  49 H49          -10.6948     5.9920     0.2265 H       
  50 H50           -8.5979     7.2544    -0.2034 H       
  51 H51           -6.4463     6.0143    -0.2378 H       
@<TRIPOS>BOND
   1    1    2 ar
   2    1    7 1
   3    1    6 ar
   4    2    3 ar
   5    2   10 1
   6    3    4 ar
   7    3   30 1
   8    4    5 ar
   9    4   31 1
  10    5    6 ar
  11    5   12 1
  12    6   32 1
  13    7    8 2
  14    8    9 1
  15    8   13 1
  16    9   10 am
  17    9   16 1
  18   10   11 2
  19   12   19 ar
  20   12   23 ar
  21   13   14 1
  22   13   33 1
  23   13   34 1
  24   14   15 1
  25   14   35 1
  26   14   36 1
  27   15   16 1
  28   15   17 1
  29   15   18 1
  30   16   37 1
  31   16   38 1
  32   17   39 1
  33   17   40 1
  34   17   41 1
  35   18   42 1
  36   18   43 1
  37   18   44 1
  38   19   20 ar
  39   20   21 ar
  40   20   45 1
  41   21   22 ar
  42   21   24 1
  43   22   23 ar
  44   22   46 1
  45   23   47 1
  46   24   25 ar
  47   24   29 ar
  48   25   26 ar
  49   26   27 ar
  50   26   48 1
  51   27   28 ar
  52   27   49 1
  53   28   29 ar
  54   28   50 1
  55   29   51 1

#	End of record

