#	Name: ASD01148675
#	Creating user name:	WinNT
#	Creation time:	15. 06. 2019 19:03

#	Modifying user name:	WinNT
#	Modification time:	15. 06. 2019 19:03

#	Program:	/corina/corina34_cracker 3.40 0067  02.08.2006

@<TRIPOS>MOLECULE
ASD01148675
  31   33    0    0    0
SMALL
NO_CHARGES


@<TRIPOS>ATOM
   1 O1            -0.0461    -0.1358    -0.1688 O.3     
   2 C2             0.0752     1.2026    -0.2497 C.2     
   3 C3             1.4268     1.5890    -0.2106 C.2     
   4 C4             2.2098     0.4930    -0.1026 C.2     
   5 C5             1.2706    -0.6924    -0.0704 C.3     
   6 O6            -0.8604     1.9754    -0.3440 O.2     
   7 N7             3.5736     0.4619    -0.0366 N.pl3   
   8 C8             4.2705    -0.8178     0.1148 C.3     
   9 C9             5.1475    -1.2866    -1.0480 C.3     
  10 C10            5.7947    -0.7813     0.2430 C.3     
  11 C11            4.3395     1.7081    -0.1172 C.3     
  12 C12            5.6476     1.9952     2.0027 C.ar    
  13 C13            4.5141     2.2808     1.2657 C.ar    
  14 C14            3.5395     3.1008     1.8134 C.ar    
  15 C15            3.7427     3.6063     3.0901 C.ar    
  16 C16            4.9049     3.2760     3.7688 C.ar    
  17 N17            5.8097     2.4924     3.2134 N.ar    
  18 F18            2.8200     4.4097     3.6631 F       
  19 Cl19           5.1735     3.9002     5.3662 Cl      
  20 H20            1.7846     2.6068    -0.2598 H       
  21 H21            1.3814    -1.2366     0.8675 H       
  22 H22            1.4660    -1.3520    -0.9159 H       
  23 H23            3.7357    -1.5803     0.6810 H       
  24 H24            5.1899    -2.3575    -1.2465 H       
  25 H25            5.2059    -0.6428    -1.9256 H       
  26 H26            6.2789     0.1949     0.2147 H       
  27 H27            6.2629    -1.5198     0.8938 H       
  28 H28            5.3180     1.5056    -0.5528 H       
  29 H29            3.8047     2.4235    -0.7419 H       
  30 H30            6.4084     1.3534     1.5836 H       
  31 H31            2.6439     3.3409     1.2597 H       
@<TRIPOS>BOND
   1    1    2 1
   2    1    5 1
   3    2    3 1
   4    2    6 2
   5    3    4 2
   6    3   20 1
   7    4    5 1
   8    4    7 1
   9    5   21 1
  10    5   22 1
  11    7    8 1
  12    7   11 1
  13    8    9 1
  14    8   10 1
  15    8   23 1
  16    9   10 1
  17    9   24 1
  18    9   25 1
  19   10   26 1
  20   10   27 1
  21   11   13 1
  22   11   28 1
  23   11   29 1
  24   12   13 ar
  25   12   17 ar
  26   12   30 1
  27   13   14 ar
  28   14   15 ar
  29   14   31 1
  30   15   16 ar
  31   15   18 1
  32   16   17 ar
  33   16   19 1

#	End of record

