#	Name: ASD00960231
#	Creating user name:	WinNT
#	Creation time:	15. 06. 2019 18:53

#	Modifying user name:	WinNT
#	Modification time:	15. 06. 2019 18:53

#	Program:	/corina/corina34_cracker 3.40 0067  02.08.2006

@<TRIPOS>MOLECULE
ASD00960231
  46   48    0    0    0
SMALL
NO_CHARGES


@<TRIPOS>ATOM
   1 C1            -0.0169     1.3934     0.0097 C.2     
   2 N2             2.1220     0.7333    -0.0143 N.pl3   
   3 C3             1.3487    -0.3972    -0.0130 C.2     
   4 C4             0.0021    -0.0041     0.0020 C.2     
   5 N5             3.5168     0.5887    -0.0288 N.2     
   6 C6             4.0509    -0.6047    -0.0406 C.2     
   7 N7             3.3113    -1.7087    -0.0399 N.2     
   8 C8             1.9898    -1.6553    -0.0254 C.2     
   9 N9             1.2444    -2.8182    -0.0250 N.pl3   
  10 C10           -1.1377    -0.8709     0.0090 C.1     
  11 C11           -2.0722    -1.5816     0.0146 C.1     
  12 C12            1.3010     1.8278    -0.0005 C.2     
  13 Si13          -3.5845    -2.7317     0.0239 Si      
  14 C14           -5.1419    -1.7096     0.0439 C.3     
  15 C15           -3.5620    -3.7994    -1.5027 C.3     
  16 C16           -3.5324    -3.8139     1.5394 C.3     
  17 C17            1.7393     3.2229     0.0020 C.2     
  18 O18            0.9165     4.1190     0.0145 O.2     
  19 O19            3.0563     3.5164    -0.0094 O.3     
  20 C20            3.4126     4.9002    -0.0061 C.3     
  21 C21            4.9138     5.0324    -0.0201 C.ar    
  22 C22            5.5906     5.0989    -1.2236 C.ar    
  23 C23            6.9675     5.2201    -1.2364 C.ar    
  24 C24            7.6676     5.2753    -0.0458 C.ar    
  25 C25            6.9908     5.2097     1.1577 C.ar    
  26 C26            5.6134     5.0928     1.1706 C.ar    
  27 H27           -0.8962     2.0203     0.0175 H       
  28 H28            5.1270    -0.6960    -0.0517 H       
  29 H29            1.6898    -3.6798    -0.0353 H       
  30 H30            0.2755    -2.7732    -0.0143 H       
  31 H31           -5.1724    -1.0764    -0.8428 H       
  32 H32           -6.0095    -2.3694     0.0492 H       
  33 H33           -5.1551    -1.0849     0.9370 H       
  34 H34           -2.6508    -4.3974    -1.5144 H       
  35 H35           -4.4296    -4.4592    -1.4974 H       
  36 H36           -3.5924    -3.1662    -2.3894 H       
  37 H37           -3.5456    -3.1893     2.4325 H       
  38 H38           -4.4000    -4.4738     1.5447 H       
  39 H39           -2.6212    -4.4120     1.5277 H       
  40 H40            2.9970     5.3846    -0.8897 H       
  41 H41            3.0144     5.3758     0.8902 H       
  42 H42            5.0436     5.0558    -2.1538 H       
  43 H43            7.4963     5.2714    -2.1767 H       
  44 H44            8.7435     5.3693    -0.0558 H       
  45 H45            7.5378     5.2524     2.0880 H       
  46 H46            5.0843     5.0454     2.1109 H       
@<TRIPOS>BOND
   1    1    4 1
   2    1   12 2
   3    1   27 1
   4    2    3 1
   5    2    5 1
   6    2   12 1
   7    3    4 2
   8    3    8 1
   9    4   10 1
  10    5    6 2
  11    6    7 1
  12    6   28 1
  13    7    8 2
  14    8    9 1
  15    9   29 1
  16    9   30 1
  17   10   11 3
  18   11   13 1
  19   12   17 1
  20   13   14 1
  21   13   15 1
  22   13   16 1
  23   14   31 1
  24   14   32 1
  25   14   33 1
  26   15   34 1
  27   15   35 1
  28   15   36 1
  29   16   37 1
  30   16   38 1
  31   16   39 1
  32   17   18 2
  33   17   19 1
  34   19   20 1
  35   20   21 1
  36   20   40 1
  37   20   41 1
  38   21   22 ar
  39   21   26 ar
  40   22   23 ar
  41   22   42 1
  42   23   24 ar
  43   23   43 1
  44   24   25 ar
  45   24   44 1
  46   25   26 ar
  47   25   45 1
  48   26   46 1

#	End of record

