#	Name: ASD01883630
#	Creating user name:	WinNT
#	Creation time:	15. 06. 2019 19:46

#	Modifying user name:	WinNT
#	Modification time:	15. 06. 2019 19:46

#	Program:	/corina/corina34_cracker 3.40 0067  02.08.2006

@<TRIPOS>MOLECULE
ASD01883630
  41   44    0    0    0
SMALL
NO_CHARGES


@<TRIPOS>ATOM
   1 C1            -0.0184     1.5028     0.0103 C.3     
   2 C2             0.0021    -0.0041     0.0020 C.2     
   3 C3            -1.0773    -0.7877     0.0028 C.2     
   4 C4            -0.8118    -2.1462    -0.0063 C.2     
   5 C5            -1.9032    -3.1855    -0.0075 C.3     
   6 C6            -2.2733    -3.5236    -1.4286 C.2     
   7 N7            -3.1880    -2.9148    -2.1255 N.2     
   8 C8            -3.2636    -3.4691    -3.3628 C.ar    
   9 C9            -4.0522    -3.2125    -4.4870 C.ar    
  10 C10           -3.8906    -3.9625    -5.6176 C.ar    
  11 C11           -2.9489    -4.9803    -5.6631 C.ar    
  12 C12           -2.1598    -5.2518    -4.5653 C.ar    
  13 C13           -2.3095    -4.5000    -3.4083 C.ar    
  14 N14           -1.6958    -4.5060    -2.1716 N.pl3   
  15 C15           -0.6233    -5.4052    -1.7388 C.3     
  16 C16           -1.2234    -6.6402    -1.1176 C.ar    
  17 C17           -1.4898    -6.6717     0.2386 C.ar    
  18 C18           -2.0401    -7.8040     0.8089 C.ar    
  19 C19           -2.3243    -8.9061     0.0223 C.ar    
  20 Cl20          -3.0161   -10.3285     0.7378 Cl      
  21 C21           -2.0574    -8.8740    -1.3349 C.ar    
  22 C22           -1.5124    -7.7390    -1.9050 C.ar    
  23 C23            0.4832    -2.4658    -0.0145 C.2     
  24 S24            1.4528    -0.9983    -0.0178 S.3     
  25 H25            1.0042     1.8801     0.0026 H       
  26 H26           -0.5455     1.8639    -0.8728 H       
  27 H27           -0.5286     1.8543     0.9071 H       
  28 H28           -2.0823    -0.3923     0.0103 H       
  29 H29           -1.5502    -4.0835     0.4996 H       
  30 H30           -2.7777    -2.7945     0.5126 H       
  31 H31           -4.7885    -2.4228    -4.4624 H       
  32 H32           -4.5024    -3.7613    -6.4846 H       
  33 H33           -2.8334    -5.5642    -6.5643 H       
  34 H34           -1.4287    -6.0457    -4.6057 H       
  35 H35           -0.0177    -5.6891    -2.5995 H       
  36 H36            0.0030    -4.8973    -1.0054 H       
  37 H37           -1.2676    -5.8114     0.8525 H       
  38 H38           -2.2479    -7.8286     1.8684 H       
  39 H39           -2.2788    -9.7341    -1.9493 H       
  40 H40           -1.3084    -7.7121    -2.9652 H       
  41 H41            0.8762    -3.4717    -0.0217 H       
@<TRIPOS>BOND
   1    1    2 1
   2    1   25 1
   3    1   26 1
   4    1   27 1
   5    2   24 1
   6    2    3 2
   7    3    4 1
   8    3   28 1
   9    4    5 1
  10    4   23 2
  11    5    6 1
  12    5   29 1
  13    5   30 1
  14    6   14 1
  15    6    7 2
  16    7    8 1
  17    8   13 ar
  18    8    9 ar
  19    9   10 ar
  20    9   31 1
  21   10   11 ar
  22   10   32 1
  23   11   12 ar
  24   11   33 1
  25   12   13 ar
  26   12   34 1
  27   13   14 1
  28   14   15 1
  29   15   16 1
  30   15   35 1
  31   15   36 1
  32   16   22 ar
  33   16   17 ar
  34   17   18 ar
  35   17   37 1
  36   18   19 ar
  37   18   38 1
  38   19   20 1
  39   19   21 ar
  40   21   22 ar
  41   21   39 1
  42   22   40 1
  43   23   24 1
  44   23   41 1

#	End of record

