#	Name: ASD01903153
#	Creating user name:	WinNT
#	Creation time:	15. 06. 2019 19:54

#	Modifying user name:	WinNT
#	Modification time:	15. 06. 2019 19:54

#	Program:	/corina/corina34_cracker 3.40 0067  02.08.2006

@<TRIPOS>MOLECULE
ASD01903153
  52   54    0    0    0
SMALL
NO_CHARGES


@<TRIPOS>ATOM
   1 C1             1.9394    -2.2553     1.4605 C.ar    
   2 C2             0.9318    -1.7328     0.6652 C.ar    
   3 C3             1.1787    -0.5919    -0.0820 C.ar    
   4 N4             2.3532    -0.0016    -0.0454 N.ar    
   5 C5             3.3448    -0.4696     0.7031 C.ar    
   6 C6             3.1673    -1.6122     1.4796 C.ar    
   7 C7             4.6508     0.2292     0.7124 C.2     
   8 N8             4.8287     1.3353    -0.0369 N.am    
   9 O9             5.5620    -0.1949     1.3956 O.2     
  10 C10            6.0274     2.0504     0.0458 C.ar    
  11 C11            7.2278     1.3775     0.2337 C.ar    
  12 C12            8.4100     2.0868     0.3150 C.ar    
  13 C13            8.3995     3.4656     0.2094 C.ar    
  14 C14            7.2060     4.1387     0.0227 C.ar    
  15 C15            6.0210     3.4349    -0.0656 C.ar    
  16 S16            9.9100     4.3668     0.3136 S.o2    
  17 O17            9.5647     5.6826     0.7241 O.2     
  18 O18           10.8201     3.5430     1.0294 O.2     
  19 N19           10.5091     4.4989    -1.2245 N.am    
  20 C20            9.7754     5.2678    -2.2329 C.3     
  21 C21           10.6777     5.5452    -3.4076 C.ar    
  22 C22           10.7329     4.6535    -4.4625 C.ar    
  23 C23           11.5606     4.9080    -5.5400 C.ar    
  24 C24           12.3327     6.0544    -5.5629 C.ar    
  25 C25           12.2768     6.9465    -4.5085 C.ar    
  26 C26           11.4459     6.6942    -3.4329 C.ar    
  27 C27           13.2357     6.3313    -6.7372 C.3     
  28 C28           11.3849     7.6668    -2.2834 C.3     
  29 C29            9.8912     3.4038    -4.4375 C.3     
  30 H30            1.7704    -3.1407     2.0553 H       
  31 H31           -0.0362    -2.2102     0.6278 H       
  32 H32            0.3959    -0.1822    -0.7031 H       
  33 H33            3.9750    -1.9920     2.0877 H       
  34 H34            4.1251     1.6352    -0.6335 H       
  35 H35            7.2367     0.3007     0.3166 H       
  36 H36            9.3437     1.5642     0.4615 H       
  37 H37            7.2012     5.2156    -0.0590 H       
  38 H38            5.0892     3.9612    -0.2114 H       
  39 H39           11.3458     4.0672    -1.4579 H       
  40 H40            8.9096     4.6960    -2.5668 H       
  41 H41            9.4428     6.2110    -1.7995 H       
  42 H42           11.6042     4.2110    -6.3638 H       
  43 H43           12.8803     7.8420    -4.5262 H       
  44 H44           12.6902     6.9028    -7.4882 H       
  45 H45           14.1011     6.9036    -6.4030 H       
  46 H46           13.5689     5.3879    -7.1697 H       
  47 H47           10.6091     8.4080    -2.4754 H       
  48 H48           11.1538     7.1287    -1.3641 H       
  49 H49           12.3477     8.1671    -2.1794 H       
  50 H50            8.9246     3.6074    -4.8983 H       
  51 H51           10.3981     2.6132    -4.9908 H       
  52 H52            9.7420     3.0867    -3.4054 H       
@<TRIPOS>BOND
   1    1    2 ar
   2    1    6 ar
   3    1   30 1
   4    2    3 ar
   5    2   31 1
   6    3    4 ar
   7    3   32 1
   8    4    5 ar
   9    5    6 ar
  10    5    7 1
  11    6   33 1
  12    7    8 am
  13    7    9 2
  14    8   10 1
  15    8   34 1
  16   10   11 ar
  17   10   15 ar
  18   11   12 ar
  19   11   35 1
  20   12   13 ar
  21   12   36 1
  22   13   14 ar
  23   13   16 1
  24   14   15 ar
  25   14   37 1
  26   15   38 1
  27   16   17 2
  28   16   18 2
  29   16   19 am
  30   19   20 1
  31   19   39 1
  32   20   21 1
  33   20   40 1
  34   20   41 1
  35   21   22 ar
  36   21   26 ar
  37   22   23 ar
  38   22   29 1
  39   23   24 ar
  40   23   42 1
  41   24   25 ar
  42   24   27 1
  43   25   26 ar
  44   25   43 1
  45   26   28 1
  46   27   44 1
  47   27   45 1
  48   27   46 1
  49   28   47 1
  50   28   48 1
  51   28   49 1
  52   29   50 1
  53   29   51 1
  54   29   52 1

#	End of record

