#	Name: ASD03090490
#	Creating user name:	WinNT
#	Creation time:	15. 06. 2019 20:28

#	Modifying user name:	WinNT
#	Modification time:	15. 06. 2019 20:28

#	Program:	/corina/corina34_cracker 3.40 0067  02.08.2006

@<TRIPOS>MOLECULE
ASD03090490
  36   38    0    0    0
SMALL
NO_CHARGES


@<TRIPOS>ATOM
   1 C1            -0.0169     1.3915     0.0097 C.ar    
   2 C2             0.0021    -0.0041     0.0020 C.ar    
   3 C3             1.2176    -0.6609    -0.0132 C.ar    
   4 C4             2.3853     0.1030    -0.0203 C.ar    
   5 C5             2.2880     1.4950    -0.0118 C.ar    
   6 N6             1.1158     2.0862     0.0026 N.ar    
   7 C7            -1.3113     2.1047     0.0197 C.2     
   8 O8            -2.3517     1.4759     0.0212 O.2     
   9 N9            -1.3383     3.4521     0.0271 N.am    
  10 S10            3.9634    -0.6805    -0.0390 S.3     
  11 C11            5.1149     0.7211    -0.0427 C.3     
  12 F12            4.9121     1.4943     1.1054 F       
  13 F13            6.4300     0.2442    -0.0575 F       
  14 F14            4.8907     1.5059    -1.1790 F       
  15 C15           -2.6214     4.1591     0.0370 C.3     
  16 N16           -1.7082     9.7117    -0.2103 N.pl3   
  17 C17           -1.6870     9.8854    -1.5674 C.2     
  18 C18           -1.8835     8.7085    -2.1825 C.2     
  19 C19           -2.0437     7.6986    -1.1335 C.ar    
  20 C20           -2.2709     6.3209    -1.1392 C.ar    
  21 C21           -2.3758     5.6459     0.0440 C.ar    
  22 C22           -2.2583     6.3188     1.2526 C.ar    
  23 C23           -2.0346     7.6777     1.2813 C.ar    
  24 C24           -1.9244     8.3851     0.0884 C.ar    
  25 H25           -0.9217    -0.5635     0.0082 H       
  26 H26            1.2629    -1.7399    -0.0190 H       
  27 H27            3.1873     2.0930    -0.0173 H       
  28 H28           -0.5081     3.9539     0.0259 H       
  29 H29           -3.1918     3.8892    -0.8517 H       
  30 H30           -3.1834     3.8795     0.9282 H       
  31 H31           -1.5851    10.4173     0.4437 H       
  32 H32           -1.5350    10.8295    -2.0693 H       
  33 H33           -1.9172     8.5385    -3.2485 H       
  34 H34           -2.3642     5.7909    -2.0756 H       
  35 H35           -2.3435     5.7714     2.1797 H       
  36 H36           -1.9450     8.1922     2.2266 H       
@<TRIPOS>BOND
   1    1    2 ar
   2    1    6 ar
   3    1    7 1
   4    2    3 ar
   5    2   25 1
   6    3    4 ar
   7    3   26 1
   8    4    5 ar
   9    4   10 1
  10    5    6 ar
  11    5   27 1
  12    7    8 2
  13    7    9 am
  14    9   15 1
  15    9   28 1
  16   10   11 1
  17   11   12 1
  18   11   13 1
  19   11   14 1
  20   15   21 1
  21   15   29 1
  22   15   30 1
  23   16   17 1
  24   16   24 1
  25   16   31 1
  26   17   18 2
  27   17   32 1
  28   18   19 1
  29   18   33 1
  30   19   20 ar
  31   19   24 ar
  32   20   21 ar
  33   20   34 1
  34   21   22 ar
  35   22   23 ar
  36   22   35 1
  37   23   24 ar
  38   23   36 1

#	End of record

