#	Name: ASD02038603
#	Creating user name:	WinNT
#	Creation time:	15. 06. 2019 20:17

#	Modifying user name:	WinNT
#	Modification time:	15. 06. 2019 20:17

#	Program:	/corina/corina34_cracker 3.40 0067  02.08.2006

@<TRIPOS>MOLECULE
ASD02038603
  46   47    0    0    0
SMALL
NO_CHARGES


@<TRIPOS>ATOM
   1 C1            -0.0762     2.0350     1.0119 C.ar    
   2 C2             0.0068     0.6615     0.8657 C.ar    
   3 C3            -1.1436    -0.0907     0.7310 C.ar    
   4 C4            -2.3847     0.5327     0.7428 C.ar    
   5 C5            -2.4651     1.9115     0.8902 C.ar    
   6 C6            -1.3117     2.6581     1.0298 C.ar    
   7 N7            -3.5504    -0.2259     0.6063 N.pl3   
   8 C8            -4.8588     0.4330     0.6189 C.3     
   9 C9            -5.9598    -0.6163     0.4533 C.3     
  10 N10           -7.2683     0.0426     0.4659 N.am    
  11 C11           -8.3925    -0.6890     0.3342 C.2     
  12 C12           -9.7384    -0.0112     0.3472 C.3     
  13 O13          -10.7668    -0.9913     0.1926 O.3     
  14 C14          -12.0507    -0.5429     0.1832 C.ar    
  15 Cl15           1.3719     2.9775     1.1805 Cl      
  16 C16          -13.0975    -1.4409     0.0367 C.ar    
  17 C17          -12.3128     0.8117     0.3258 C.ar    
  18 C18          -13.6164     1.2679     0.3169 C.ar    
  19 C19          -14.6647     0.3701     0.1646 C.ar    
  20 C20          -14.4016    -0.9864     0.0271 C.ar    
  21 N21          -15.9858     0.8315     0.1554 N.am    
  22 S22          -16.5822     1.6088    -1.1797 S.o2    
  23 C23          -16.5204     0.3612    -2.4950 C.3     
  24 O24          -17.9289     1.9077    -0.8388 O.2     
  25 O25          -15.6427     2.6449    -1.4307 O.2     
  26 O26           -8.3210    -1.8928     0.2052 O.2     
  27 H27            0.9722     0.1773     0.8566 H       
  28 H28           -1.0781    -1.1626     0.6163 H       
  29 H29           -3.4289     2.3988     0.8994 H       
  30 H30           -1.3736     3.7302     1.1447 H       
  31 H31           -3.4932    -1.1887     0.5031 H       
  32 H32           -4.9937     0.9548     1.5663 H       
  33 H33           -4.9129     1.1490    -0.2012 H       
  34 H34           -5.8250    -1.1381    -0.4941 H       
  35 H35           -5.9057    -1.3323     1.2734 H       
  36 H36           -7.3254     1.0054     0.5691 H       
  37 H37           -9.8733     0.5106     1.2946 H       
  38 H38           -9.7926     0.7048    -0.4728 H       
  39 H39          -12.8927    -2.4959    -0.0702 H       
  40 H40          -11.4973     1.5098     0.4442 H       
  41 H41          -13.8203     2.3226     0.4286 H       
  42 H42          -15.2164    -1.6854    -0.0914 H       
  43 H43          -16.5522     0.6960     0.9311 H       
  44 H44          -17.0610    -0.5301    -2.1762 H       
  45 H45          -16.9812     0.7620    -3.3979 H       
  46 H46          -15.4820     0.1019    -2.7015 H       
@<TRIPOS>BOND
   1    1    2 ar
   2    1   15 1
   3    1    6 ar
   4    2    3 ar
   5    2   27 1
   6    3    4 ar
   7    3   28 1
   8    4    5 ar
   9    4    7 1
  10    5    6 ar
  11    5   29 1
  12    6   30 1
  13    7    8 1
  14    7   31 1
  15    8    9 1
  16    8   32 1
  17    8   33 1
  18    9   10 1
  19    9   34 1
  20    9   35 1
  21   10   11 am
  22   10   36 1
  23   11   12 1
  24   11   26 2
  25   12   13 1
  26   12   37 1
  27   12   38 1
  28   13   14 1
  29   14   16 ar
  30   14   17 ar
  31   16   20 ar
  32   16   39 1
  33   17   18 ar
  34   17   40 1
  35   18   19 ar
  36   18   41 1
  37   19   20 ar
  38   19   21 1
  39   20   42 1
  40   21   22 am
  41   21   43 1
  42   22   23 1
  43   22   24 2
  44   22   25 2
  45   23   44 1
  46   23   45 1
  47   23   46 1

#	End of record

