#	Name: ASD03090515
#	Creating user name:	WinNT
#	Creation time:	15. 06. 2019 20:28

#	Modifying user name:	WinNT
#	Modification time:	15. 06. 2019 20:28

#	Program:	/corina/corina34_cracker 3.40 0067  02.08.2006

@<TRIPOS>MOLECULE
ASD03090515
  36   38    0    0    0
SMALL
NO_CHARGES


@<TRIPOS>ATOM
   1 C1            -0.0180     1.4742     0.0101 C.2     
   2 C2             0.0021    -0.0041     0.0020 C.ar    
   3 C3             1.2184    -0.6885    -0.0133 C.ar    
   4 C4             1.2301    -2.0680    -0.0203 C.ar    
   5 C5             0.0396    -2.7730    -0.0127 C.ar    
   6 C6            -1.1695    -2.1007     0.0024 C.ar    
   7 C7            -1.1952    -0.7214     0.0154 C.ar    
   8 O8             1.0263     2.0963     0.0035 O.2     
   9 N9            -1.1942     2.1322     0.0193 N.am    
  10 C10            0.0601    -4.2798    -0.0215 C.3     
  11 F11            0.0792    -4.7536     1.2947 F       
  12 F12           -1.0822    -4.7579    -0.6726 F       
  13 F13            1.2021    -4.7268    -0.6947 F       
  14 C14           -1.2141     3.5970     0.0274 C.3     
  15 N15           -6.5411     5.4010     0.3357 N.pl3   
  16 C16           -6.6944     5.4476     1.6946 C.2     
  17 C17           -5.5590     5.0597     2.2967 C.2     
  18 C18           -4.6003     4.7386     1.2367 C.ar    
  19 C19           -3.2778     4.2907     1.2273 C.ar    
  20 C20           -2.6415     4.0800     0.0368 C.ar    
  21 C21           -3.2994     4.3077    -1.1644 C.ar    
  22 C22           -4.6038     4.7501    -1.1782 C.ar    
  23 C23           -5.2711     4.9713     0.0224 C.ar    
  24 H24            2.1484    -0.1393    -0.0199 H       
  25 H25            2.1706    -2.5988    -0.0321 H       
  26 H26           -2.0953    -2.6569     0.0083 H       
  27 H27           -2.1396    -0.1978     0.0318 H       
  28 H28           -2.0276     1.6358     0.0206 H       
  29 H29           -0.7010     3.9625     0.9169 H       
  30 H30           -0.7094     3.9721    -0.8630 H       
  31 H31           -7.2264     5.6324    -0.3106 H       
  32 H32           -7.5953     5.7516     2.2068 H       
  33 H33           -5.3854     4.9965     3.3608 H       
  34 H34           -2.7594     4.1123     2.1578 H       
  35 H35           -2.7831     4.1365    -2.0975 H       
  36 H36           -5.1068     4.9246    -2.1178 H       
@<TRIPOS>BOND
   1    1    2 1
   2    1    8 2
   3    1    9 am
   4    2    3 ar
   5    2    7 ar
   6    3    4 ar
   7    3   24 1
   8    4    5 ar
   9    4   25 1
  10    5    6 ar
  11    5   10 1
  12    6    7 ar
  13    6   26 1
  14    7   27 1
  15    9   14 1
  16    9   28 1
  17   10   11 1
  18   10   12 1
  19   10   13 1
  20   14   20 1
  21   14   29 1
  22   14   30 1
  23   15   16 1
  24   15   23 1
  25   15   31 1
  26   16   17 2
  27   16   32 1
  28   17   18 1
  29   17   33 1
  30   18   19 ar
  31   18   23 ar
  32   19   20 ar
  33   19   34 1
  34   20   21 ar
  35   21   22 ar
  36   21   35 1
  37   22   23 ar
  38   22   36 1

#	End of record

