#	Name: ASD03090008
#	Creating user name:	WinNT
#	Creation time:	15. 06. 2019 20:28

#	Modifying user name:	WinNT
#	Modification time:	15. 06. 2019 20:28

#	Program:	/corina/corina34_cracker 3.40 0067  02.08.2006

@<TRIPOS>MOLECULE
ASD03090008
  30   32    0    0    0
SMALL
NO_CHARGES


@<TRIPOS>ATOM
   1 C1            -0.0168     1.3864     0.0097 C.ar    
   2 C2             0.0021    -0.0041     0.0020 C.ar    
   3 C3            -1.1855    -0.7127     0.0052 C.ar    
   4 C4            -2.4010    -0.0184     0.0125 C.ar    
   5 C5            -2.4205     1.3882     0.0314 C.ar    
   6 C6            -1.2168     2.0792     0.0306 C.ar    
   7 C7            -3.6911    -0.7288    -0.0069 C.2     
   8 C8            -4.8784     0.1023    -0.2889 C.2     
   9 C9            -4.7395     1.4521    -0.2416 C.2     
  10 O10           -3.5899     2.0554     0.0625 O.3     
  11 O11            1.1541     2.0731     0.0022 O.3     
  12 O12           -1.1727    -2.0696     0.0009 O.3     
  13 O13           -3.7734    -1.9280     0.1968 O.2     
  14 C14           -6.1850    -0.5195    -0.6150 C.ar    
  15 C15           -6.7491    -0.3386    -1.8767 C.ar    
  16 C16           -7.9640    -0.9184    -2.1770 C.ar    
  17 C17           -8.6251    -1.6811    -1.2241 C.ar    
  18 C18           -8.0662    -1.8628     0.0335 C.ar    
  19 C19           -6.8486    -1.2907     0.3378 C.ar    
  20 O20           -9.8223    -2.2508    -1.5228 O.3     
  21 H21            0.9448    -0.5309    -0.0068 H       
  22 H22           -1.2154     3.1592     0.0381 H       
  23 H23           -5.6006     2.0660    -0.4609 H       
  24 H24            1.4849     2.2769    -0.8833 H       
  25 H25           -1.1649    -2.4657     0.8830 H       
  26 H26           -6.2355     0.2553    -2.6183 H       
  27 H27           -8.4016    -0.7786    -3.1544 H       
  28 H28           -8.5832    -2.4565     0.7729 H       
  29 H29           -6.4141    -1.4327     1.3163 H       
  30 H30           -9.7524    -3.1388    -1.8992 H       
@<TRIPOS>BOND
   1    1    2 ar
   2    1   11 1
   3    1    6 ar
   4    2    3 ar
   5    2   21 1
   6    3    4 ar
   7    3   12 1
   8    4    5 ar
   9    4    7 1
  10    5    6 ar
  11    5   10 1
  12    6   22 1
  13    7    8 1
  14    7   13 2
  15    8    9 2
  16    8   14 1
  17    9   10 1
  18    9   23 1
  19   11   24 1
  20   12   25 1
  21   14   15 ar
  22   14   19 ar
  23   15   16 ar
  24   15   26 1
  25   16   17 ar
  26   16   27 1
  27   17   18 ar
  28   17   20 1
  29   18   19 ar
  30   18   28 1
  31   19   29 1
  32   20   30 1

#	End of record

