#	Name: ASD05850007
#	Creating user name:	WinNT
#	Creation time:	15. 06. 2019 21:04

#	Modifying user name:	WinNT
#	Modification time:	15. 06. 2019 21:04

#	Program:	/corina/corina34_cracker 3.40 0067  02.08.2006

@<TRIPOS>MOLECULE
ASD05850007
  39   40    0    0    0
SMALL
NO_CHARGES


@<TRIPOS>ATOM
   1 C1            -0.0167     1.3791     0.0096 C.ar    
   2 C2             0.0021    -0.0041     0.0020 C.ar    
   3 C3             1.2041    -0.6830    -0.0132 C.ar    
   4 C4             2.4027     0.0263    -0.0208 C.ar    
   5 C5             2.3804     1.4246    -0.0131 C.ar    
   6 C6             1.1672     2.0929     0.0022 C.ar    
   7 C7             3.6966    -0.6980    -0.0366 C.ar    
   8 C8             4.5692    -0.6006     1.0514 C.ar    
   9 C9             5.7759    -1.2811     1.0284 C.ar    
  10 C10            6.1149    -2.0526    -0.0670 C.ar    
  11 C11            5.2534    -2.1509    -1.1454 C.ar    
  12 C12            4.0457    -1.4831    -1.1333 C.ar    
  13 O13            4.2352     0.1589     2.1273 O.3     
  14 O14            3.5445     2.1250    -0.0201 O.3     
  15 C15            7.4291    -2.7899    -0.0872 C.3     
  16 C16            7.2415    -4.1833     0.5160 C.3     
  17 C17            8.5557    -4.9206     0.4957 C.2     
  18 O18            8.6314    -6.1708     0.9783 O.3     
  19 O19            9.5413    -4.3863     0.0450 O.2     
  20 C20            9.9293    -6.8199     0.9267 C.3     
  21 C21            9.8195    -8.2273     1.5168 C.3     
  22 H22           -0.9606     1.9039     0.0169 H       
  23 H23           -0.9269    -0.5548     0.0083 H       
  24 H24            1.2149    -1.7629    -0.0187 H       
  25 H25            1.1462     3.1727     0.0078 H       
  26 H26            6.4524    -1.2082     1.8671 H       
  27 H27            5.5252    -2.7558    -1.9978 H       
  28 H28            3.3757    -1.5621    -1.9767 H       
  29 H29            3.7506    -0.3214     2.8126 H       
  30 H30            3.8734     2.3325    -0.9054 H       
  31 H31            7.7776    -2.8831    -1.1158 H       
  32 H32            8.1649    -2.2371     0.4969 H       
  33 H33            6.8931    -4.0901     1.5446 H       
  34 H34            6.5058    -4.7361    -0.0682 H       
  35 H35           10.2619    -6.8852    -0.1093 H       
  36 H36           10.6491    -6.2392     1.5035 H       
  37 H37            9.0996    -8.8079     0.9400 H       
  38 H38           10.7937    -8.7145     1.4780 H       
  39 H39            9.4869    -8.1619     2.5527 H       
@<TRIPOS>BOND
   1    1    2 ar
   2    1    6 ar
   3    1   22 1
   4    2    3 ar
   5    2   23 1
   6    3    4 ar
   7    3   24 1
   8    4    5 ar
   9    4    7 1
  10    5    6 ar
  11    5   14 1
  12    6   25 1
  13    7    8 ar
  14    7   12 ar
  15    8    9 ar
  16    8   13 1
  17    9   10 ar
  18    9   26 1
  19   10   11 ar
  20   10   15 1
  21   11   12 ar
  22   11   27 1
  23   12   28 1
  24   13   29 1
  25   14   30 1
  26   15   16 1
  27   15   31 1
  28   15   32 1
  29   16   17 1
  30   16   33 1
  31   16   34 1
  32   17   18 1
  33   17   19 2
  34   18   20 1
  35   20   21 1
  36   20   35 1
  37   20   36 1
  38   21   37 1
  39   21   38 1
  40   21   39 1

#	End of record

