#	Name: ASD01148193
#	Creating user name:	WinNT
#	Creation time:	15. 06. 2019 19:02

#	Modifying user name:	WinNT
#	Modification time:	15. 06. 2019 19:02

#	Program:	/corina/corina34_cracker 3.40 0067  02.08.2006

@<TRIPOS>MOLECULE
ASD01148193
  52   55    0    0    0
SMALL
NO_CHARGES


@<TRIPOS>ATOM
   1 C1            -0.0167     1.3788     0.0096 C.ar    
   2 C2             0.0021    -0.0041     0.0020 C.ar    
   3 C3             1.2111    -0.6793    -0.0132 C.ar    
   4 C4             2.3983     0.0300    -0.0207 C.ar    
   5 C5             2.3777     1.4123    -0.0131 C.ar    
   6 C6             1.1711     2.0863     0.0021 C.ar    
   7 C7             3.6717     2.1848    -0.0213 C.3     
   8 O8             4.6969     1.4669    -0.7376 O.3     
   9 C9             3.5414     3.4746    -0.8662 C.3     
  10 C10            4.0449     3.0300    -2.2262 C.2     
  11 N11            4.6709     1.9106    -2.0798 N.2     
  12 C12            3.8517     3.7528    -3.4987 C.ar    
  13 C13            4.3703     3.2289    -4.6856 C.ar    
  14 C14            3.1452     4.9581    -3.5172 C.ar    
  15 C15            2.9647     5.6318    -4.7039 C.ar    
  16 C16            3.4878     5.1106    -5.8897 C.ar    
  17 C17            4.1896     3.9029    -5.8721 C.ar    
  18 C18            3.2935     5.8339    -7.1638 C.2     
  19 O19            2.6785     6.8823    -7.1799 O.2     
  20 N20            3.7982     5.3310    -8.3079 N.am    
  21 C21            4.1231     2.5066     1.4048 C.3     
  22 F22            4.2989     1.3161     2.1181 F       
  23 F23            5.3325     3.2087     1.3638 F       
  24 F24            3.1507     3.2894     2.0363 F       
  25 Cl25           1.2364    -2.4151    -0.0221 Cl      
  26 Cl26          -1.4891    -0.8929     0.0121 Cl      
  27 N27            3.6140     6.0166    -9.5157 N.pl3   
  28 C28            4.3938     7.2241    -9.7989 C.3     
  29 C29            2.6870     5.5490   -10.4499 C.ar    
  30 C30            2.5031     6.2275   -11.6480 C.ar    
  31 C31            1.5860     5.7621   -12.5696 C.ar    
  32 C32            0.8511     4.6219   -12.3010 C.ar    
  33 C33            1.0313     3.9442   -11.1091 C.ar    
  34 C34            1.9509     4.4010   -10.1855 C.ar    
  35 H35           -0.9592     1.9060     0.0170 H       
  36 H36            3.3415    -0.4959    -0.0322 H       
  37 H37            1.1560     3.1662     0.0080 H       
  38 H38            2.5013     3.7955    -0.9246 H       
  39 H39            4.1700     4.2676    -0.4612 H       
  40 H40            4.9132     2.2954    -4.6720 H       
  41 H41            2.7404     5.3609    -2.6005 H       
  42 H42            2.4183     6.5633    -4.7183 H       
  43 H43            4.5941     3.5001    -6.7890 H       
  44 H44            4.2890     4.4944    -8.2951 H       
  45 H45            5.3181     6.9489   -10.3068 H       
  46 H46            3.8131     7.8903   -10.4369 H       
  47 H47            4.6303     7.7315    -8.8636 H       
  48 H48            3.0764     7.1183   -11.8583 H       
  49 H49            1.4423     6.2894   -13.5012 H       
  50 H50            0.1345     4.2601   -13.0235 H       
  51 H51            0.4555     3.0542   -10.9022 H       
  52 H52            2.0911     3.8713    -9.2548 H       
@<TRIPOS>BOND
   1    1    2 ar
   2    1    6 ar
   3    1   35 1
   4    2    3 ar
   5    2   26 1
   6    3    4 ar
   7    3   25 1
   8    4    5 ar
   9    4   36 1
  10    5    6 ar
  11    5    7 1
  12    6   37 1
  13    7    8 1
  14    7    9 1
  15    7   21 1
  16    8   11 1
  17    9   10 1
  18    9   38 1
  19    9   39 1
  20   10   11 2
  21   10   12 1
  22   12   13 ar
  23   12   14 ar
  24   13   17 ar
  25   13   40 1
  26   14   15 ar
  27   14   41 1
  28   15   16 ar
  29   15   42 1
  30   16   17 ar
  31   16   18 1
  32   17   43 1
  33   18   19 2
  34   18   20 am
  35   20   27 1
  36   20   44 1
  37   21   22 1
  38   21   23 1
  39   21   24 1
  40   27   28 1
  41   27   29 1
  42   28   45 1
  43   28   46 1
  44   28   47 1
  45   29   30 ar
  46   29   34 ar
  47   30   31 ar
  48   30   48 1
  49   31   32 ar
  50   31   49 1
  51   32   33 ar
  52   32   50 1
  53   33   34 ar
  54   33   51 1
  55   34   52 1

#	End of record

