#	Name: ASD01912395
#	Creating user name:	WinNT
#	Creation time:	15. 06. 2019 19:59

#	Modifying user name:	WinNT
#	Modification time:	15. 06. 2019 19:59

#	Program:	/corina/corina34_cracker 3.40 0067  02.08.2006

@<TRIPOS>MOLECULE
ASD01912395
  45   47    0    0    0
SMALL
NO_CHARGES


@<TRIPOS>ATOM
   1 C1             1.3665    -0.5357     0.0181 C.2     
   2 C2             0.0021    -0.0041     0.0020 C.2     
   3 C3            -0.0160     1.3259    -0.0213 C.2     
   4 C4             1.3891     1.8731    -0.0238 C.3     
   5 C5             2.3144     0.6441     0.0023 C.3     
   6 O6             1.6796    -1.7073     0.0447 O.2     
   7 N7            -1.1484    -0.8019     0.0094 N.pl3   
   8 C8            -1.0407    -2.2617    -0.1099 C.3     
   9 C9            -1.7055    -2.9074     1.1125 C.3     
  10 C10           -3.0741    -2.2888     1.2950 C.2     
  11 C11           -3.1784    -0.7811     1.3653 C.3     
  12 C12           -2.4764    -0.1892     0.1427 C.3     
  13 C13           -4.1611    -3.0532     1.3909 C.2     
  14 C14           -5.4480    -2.4495     1.5634 C.1     
  15 C15           -6.5032    -1.9545     1.7048 C.1     
  16 C16           -7.7901    -1.3507     1.8773 C.ar    
  17 C17           -8.9275    -2.1573     1.9775 C.ar    
  18 C18          -10.1625    -1.5583     2.1438 C.ar    
  19 C19          -10.2251    -0.1724     2.2050 C.ar    
  20 C20           -9.0607     0.5661     2.0991 C.ar    
  21 N21           -7.8944    -0.0266     1.9465 N.ar    
  22 C22           -9.1264     2.0702     2.1654 C.3     
  23 C23            3.1798     0.6524     1.2640 C.3     
  24 H24           -0.9117     1.9292    -0.0366 H       
  25 H25            1.5641     2.4569    -0.9274 H       
  26 H26            1.5551     2.4881     0.8606 H       
  27 H27            2.9399     0.6188    -0.8900 H       
  28 H28           -1.5455    -2.5923    -1.0176 H       
  29 H29            0.0102    -2.5486    -0.1485 H       
  30 H30           -1.8064    -3.9807     0.9512 H       
  31 H31           -1.0989    -2.7246     1.9995 H       
  32 H32           -4.2276    -0.4856     1.3668 H       
  33 H33           -2.6942    -0.4217     2.2733 H       
  34 H34           -2.3705     0.8881     0.2704 H       
  35 H35           -3.0661    -0.3972    -0.7501 H       
  36 H36           -4.0716    -4.1283     1.3387 H       
  37 H37           -8.8427    -3.2327     1.9254 H       
  38 H38          -11.0590    -2.1553     2.2239 H       
  39 H39          -11.1753     0.3246     2.3340 H       
  40 H40           -9.0242     2.3931     3.2014 H       
  41 H41           -8.3180     2.4958     1.5708 H       
  42 H42          -10.0845     2.4097     1.7718 H       
  43 H43            3.7802    -0.2566     1.2988 H       
  44 H44            3.8372     1.5217     1.2480 H       
  45 H45            2.5384     0.6981     2.1442 H       
@<TRIPOS>BOND
   1    1    2 1
   2    1    5 1
   3    1    6 2
   4    2    3 2
   5    2    7 1
   6    3    4 1
   7    3   24 1
   8    4    5 1
   9    4   25 1
  10    4   26 1
  11    5   23 1
  12    5   27 1
  13    7    8 1
  14    7   12 1
  15    8    9 1
  16    8   28 1
  17    8   29 1
  18    9   10 1
  19    9   30 1
  20    9   31 1
  21   10   11 1
  22   10   13 2
  23   11   12 1
  24   11   32 1
  25   11   33 1
  26   12   34 1
  27   12   35 1
  28   13   14 1
  29   13   36 1
  30   14   15 3
  31   15   16 1
  32   16   17 ar
  33   16   21 ar
  34   17   18 ar
  35   17   37 1
  36   18   19 ar
  37   18   38 1
  38   19   20 ar
  39   19   39 1
  40   20   21 ar
  41   20   22 1
  42   22   40 1
  43   22   41 1
  44   22   42 1
  45   23   43 1
  46   23   44 1
  47   23   45 1

#	End of record

