#	Name: ASD01900824
#	Creating user name:	WinNT
#	Creation time:	15. 06. 2019 19:52

#	Modifying user name:	WinNT
#	Modification time:	15. 06. 2019 19:52

#	Program:	/corina/corina34_cracker 3.40 0067  02.08.2006

@<TRIPOS>MOLECULE
ASD01900824
  40   43    0    0    0
SMALL
NO_CHARGES


@<TRIPOS>ATOM
   1 N1            -0.0169     1.3954     0.0097 N.am    
   2 C2             0.0689    -0.0016     0.0005 C.ar    
   3 C3             1.3921    -1.9987    -0.1193 C.ar    
   4 C4             1.3071    -0.6205    -0.1102 C.ar    
   5 C5            -1.0840    -0.7690     0.1079 C.ar    
   6 C6            -0.9988    -2.1475     0.0993 C.ar    
   7 C7             0.2403    -2.7660    -0.0169 C.ar    
   8 Cl8           -2.4391    -3.1072     0.2340 Cl      
   9 C9             0.8228     2.1272    -0.7492 C.2     
  10 C10            0.6661     3.5951    -0.8196 C.ar    
  11 O11            1.7092     1.5797    -1.3758 O.2     
  12 C12            1.5405     4.3505    -1.6089 C.ar    
  13 C13            1.3763     5.7327    -1.6622 C.ar    
  14 C14            0.3510     6.3031    -0.9290 C.ar    
  15 C15           -0.4774     5.4909    -0.1685 C.ar    
  16 N16           -0.3073     4.1883    -0.1375 N.ar    
  17 O17            2.5321     3.7466    -2.3105 O.3     
  18 N18            0.3271    -4.1667    -0.0261 N.am    
  19 C19            0.4732    -4.9275     1.0736 C.2     
  20 C20            0.3951    -6.3448    -0.7422 C.ar    
  21 C21            0.2694    -4.9255    -1.1354 C.2     
  22 C22            0.6709    -8.7385     0.6321 C.ar    
  23 C23            0.5472    -8.7370    -0.7446 C.ar    
  24 C24            0.4041    -7.5441    -1.4361 C.ar    
  25 C25            0.5246    -6.3461     0.6616 C.ar    
  26 C26            0.6602    -7.5466     1.3399 C.ar    
  27 O27            0.1358    -4.5134    -2.2700 O.2     
  28 O28            0.5501    -4.5174     2.2142 O.2     
  29 H29           -0.6834     1.8368     0.5592 H       
  30 H30            2.3553    -2.4796    -0.2057 H       
  31 H31            2.2038    -0.0237    -0.1895 H       
  32 H32           -2.0466    -0.2879     0.1985 H       
  33 H33            2.0341     6.3447    -2.2613 H       
  34 H34            0.1970     7.3719    -0.9485 H       
  35 H35           -1.2776     5.9360     0.4042 H       
  36 H36            2.2757     3.4800    -3.2040 H       
  37 H37            0.7818    -9.6744     1.1595 H       
  38 H38            0.5573    -9.6721    -1.2849 H       
  39 H39            0.3080    -7.5490    -2.5118 H       
  40 H40            0.7569    -7.5538     2.4155 H       
@<TRIPOS>BOND
   1    1    2 1
   2    1    9 am
   3    1   29 1
   4    2    5 ar
   5    2    4 ar
   6    3    4 ar
   7    3    7 ar
   8    3   30 1
   9    4   31 1
  10    5    6 ar
  11    5   32 1
  12    6    7 ar
  13    6    8 1
  14    7   18 1
  15    9   10 1
  16    9   11 2
  17   10   12 ar
  18   10   16 ar
  19   12   13 ar
  20   12   17 1
  21   13   14 ar
  22   13   33 1
  23   14   15 ar
  24   14   34 1
  25   15   16 ar
  26   15   35 1
  27   17   36 1
  28   18   19 am
  29   18   21 am
  30   19   25 1
  31   19   28 2
  32   20   21 1
  33   20   25 ar
  34   20   24 ar
  35   21   27 2
  36   22   23 ar
  37   22   26 ar
  38   22   37 1
  39   23   24 ar
  40   23   38 1
  41   24   39 1
  42   25   26 ar
  43   26   40 1

#	End of record

