#	Name: ASD05790134
#	Creating user name:	WinNT
#	Creation time:	15. 06. 2019 21:03

#	Modifying user name:	WinNT
#	Modification time:	15. 06. 2019 21:03

#	Program:	/corina/corina34_cracker 3.40 0067  02.08.2006

@<TRIPOS>MOLECULE
ASD05790134
  74   79    0    0    0
SMALL
NO_CHARGES


@<TRIPOS>ATOM
   1 O1            -0.0563     1.1866     0.6573 O.3     
   2 C2            -1.4765    -0.7659     0.5298 C.3     
   3 C3            -0.0402    -0.2397     0.5717 C.3     
   4 C4             0.6884    -0.6677    -0.7051 C.3     
   5 C5             0.5971    -2.1771    -0.8348 C.2     
   6 C6            -0.7696    -2.8141    -0.7271 C.3     
   7 C7            -1.4634    -2.2939     0.5370 C.3     
   8 C8             1.7004    -2.8447    -1.0243 C.2     
   9 C9             1.7640    -4.3445    -1.1923 C.3     
  10 C10            0.4012    -4.7869    -1.7059 C.3     
  11 C11           -0.6352    -4.3136    -0.6582 C.3     
  12 C12            0.1790    -6.3068    -1.6960 C.3     
  13 C13           -1.3290    -6.4721    -1.5359 C.2     
  14 C14           -1.8676    -5.1380    -1.0078 C.3     
  15 C15            0.6537    -6.8881    -3.0154 C.3     
  16 C16            0.5186    -8.3702    -3.1087 C.3     
  17 C17           -0.8645    -8.8762    -3.4352 C.3     
  18 C18           -1.7770    -8.8839    -2.2221 C.3     
  19 C19           -2.0373    -7.5068    -1.7266 C.2     
  20 O20           -1.4520    -8.0655    -4.4830 O.3     
  21 C21           -1.0879    -8.7073    -5.7008 C.3     
  22 C22           -1.3631   -10.2059    -5.3912 C.3     
  23 C23           -0.7602   -10.3242    -3.9883 C.3     
  24 C24           -1.8857    -8.3584    -6.9419 C.3     
  25 C25           -1.3419    -9.2322    -8.0861 C.3     
  26 C26           -1.3899   -10.7128    -7.7204 C.3     
  27 N27           -0.7116   -10.9811    -6.4371 N.3     
  28 C28           -1.6028    -2.4399    -1.9546 C.3     
  29 C29           -3.4840    -7.2888    -1.3651 C.3     
  30 C30           -2.1857    -8.9979    -9.3406 C.3     
  31 C31            0.7015   -10.7697    -4.0642 C.3     
  32 H32            0.8226     1.5888     0.6878 H       
  33 H33           -2.0213    -0.4035     1.4016 H       
  34 H34           -1.9665    -0.4114    -0.3770 H       
  35 H35            0.4737    -0.6521     1.4401 H       
  36 H36            0.2189    -0.1974    -1.5691 H       
  37 H37            1.7349    -0.3683    -0.6467 H       
  38 H38           -0.9258    -2.6474     1.4168 H       
  39 H39           -2.4879    -2.6648     0.5666 H       
  40 H40            2.6268    -2.2911    -1.0639 H       
  41 H41            2.5373    -4.6061    -1.9146 H       
  42 H42            1.9726    -4.8185    -0.2332 H       
  43 H43            0.1953    -4.3574    -2.6864 H       
  44 H44           -0.2941    -4.5988     0.3370 H       
  45 H45            0.7032    -6.7629    -0.8562 H       
  46 H46           -2.4765    -5.3022    -0.1187 H       
  47 H47           -2.4518    -4.6352    -1.7786 H       
  48 H48            0.0769    -6.4354    -3.8219 H       
  49 H49            1.7026    -6.6257    -3.1532 H       
  50 H50            1.2039    -8.7284    -3.8770 H       
  51 H51            0.8246    -8.8022    -2.1559 H       
  52 H52           -2.7245    -9.3502    -2.4923 H       
  53 H53           -1.3089    -9.4656    -1.4280 H       
  54 H54           -0.0250    -8.5595    -5.8919 H       
  55 H55           -2.4350   -10.4022    -5.3645 H       
  56 H56           -1.3423   -11.0129    -3.3760 H       
  57 H57           -2.9415    -8.5746    -6.7784 H       
  58 H58           -1.7542    -7.3039    -7.1844 H       
  59 H59           -0.3099    -8.9485    -8.2927 H       
  60 H60           -2.4310   -11.0266    -7.6445 H       
  61 H61           -0.9029   -11.2891    -8.5070 H       
  62 H62            0.2708   -10.7581    -6.4937 H       
  63 H63           -1.1041    -2.7983    -2.8551 H       
  64 H64           -2.5886    -2.8987    -1.8781 H       
  65 H65           -1.7092    -1.3563    -2.0049 H       
  66 H66           -4.0459    -8.2050    -1.5467 H       
  67 H67           -3.5586    -7.0196    -0.3115 H       
  68 H68           -3.8938    -6.4842    -1.9755 H       
  69 H69           -2.1309    -7.9469    -9.6244 H       
  70 H70           -1.8051    -9.6145   -10.1549 H       
  71 H71           -3.2225    -9.2654    -9.1363 H       
  72 H72            1.2436   -10.1213    -4.7526 H       
  73 H73            1.1526   -10.7062    -3.0739 H       
  74 H74            0.7497   -11.7988    -4.4201 H       
@<TRIPOS>BOND
   1    1    3 1
   2    1   32 1
   3    2    3 1
   4    2    7 1
   5    2   33 1
   6    2   34 1
   7    3    4 1
   8    3   35 1
   9    4    5 1
  10    4   36 1
  11    4   37 1
  12    5    6 1
  13    5    8 2
  14    6    7 1
  15    6   28 1
  16    6   11 1
  17    7   38 1
  18    7   39 1
  19    8    9 1
  20    8   40 1
  21    9   10 1
  22    9   41 1
  23    9   42 1
  24   10   11 1
  25   10   12 1
  26   10   43 1
  27   11   14 1
  28   11   44 1
  29   12   13 1
  30   12   15 1
  31   12   45 1
  32   13   14 1
  33   13   19 2
  34   14   46 1
  35   14   47 1
  36   15   16 1
  37   15   48 1
  38   15   49 1
  39   16   17 1
  40   16   50 1
  41   16   51 1
  42   17   18 1
  43   17   20 1
  44   17   23 1
  45   18   19 1
  46   18   52 1
  47   18   53 1
  48   19   29 1
  49   20   21 1
  50   21   22 1
  51   21   24 1
  52   21   54 1
  53   22   23 1
  54   22   27 1
  55   22   55 1
  56   23   31 1
  57   23   56 1
  58   24   25 1
  59   24   57 1
  60   24   58 1
  61   25   26 1
  62   25   30 1
  63   25   59 1
  64   26   27 1
  65   26   60 1
  66   26   61 1
  67   27   62 1
  68   28   63 1
  69   28   64 1
  70   28   65 1
  71   29   66 1
  72   29   67 1
  73   29   68 1
  74   30   69 1
  75   30   70 1
  76   30   71 1
  77   31   72 1
  78   31   73 1
  79   31   74 1

#	End of record

