#	Name: ASD08390068
#	Creating user name:	WinNT
#	Creation time:	15. 06. 2019 21:19

#	Modifying user name:	WinNT
#	Modification time:	15. 06. 2019 21:19

#	Program:	/corina/corina34_cracker 3.40 0067  02.08.2006

@<TRIPOS>MOLECULE
ASD08390068
  51   54    0    0    0
SMALL
NO_CHARGES


@<TRIPOS>ATOM
   1 C1             0.4352     1.1022     0.3375 C.3     
   2 C2             1.1519     3.4762    -0.1329 C.3     
   3 C3             1.6306     2.0419     0.1675 C.3     
   4 N4             1.7216     3.7513    -1.4625 N.pl3   
   5 C5             2.4224     2.6450    -1.8684 C.2     
   6 N6             2.4124     1.6707    -1.0200 N.2     
   7 C7             3.1293     2.5729    -3.1676 C.ar    
   8 C8            -0.3532     3.5361    -0.1766 C.ar    
   9 C9             4.4083     2.0215    -3.2390 C.ar    
  10 C10            5.0621     1.9571    -4.4525 C.ar    
  11 C11            4.4514     2.4385    -5.5967 C.ar    
  12 C12            3.1830     2.9869    -5.5322 C.ar    
  13 C13            2.5165     3.0508    -4.3256 C.ar    
  14 C14           -1.0585     4.0010     0.9177 C.ar    
  15 C15           -2.4392     4.0560     0.8776 C.ar    
  16 C16           -3.1146     3.6465    -0.2569 C.ar    
  17 C17           -2.4092     3.1824    -1.3515 C.ar    
  18 C18           -1.0284     3.1315    -1.3130 C.ar    
  19 C19            1.5656     4.9942    -2.2222 C.3     
  20 C20            2.6035     5.9906    -1.7738 C.ar    
  21 C21            3.8654     5.9754    -2.3380 C.ar    
  22 C22            4.8175     6.8893    -1.9267 C.ar    
  23 C23            4.5075     7.8187    -0.9516 C.ar    
  24 C24            3.2454     7.8345    -0.3880 C.ar    
  25 C25            2.2920     6.9234    -0.8024 C.ar    
  26 O26            0.9035    -0.2191     0.6147 O.3     
  27 C27            2.5095     2.0211     1.4196 C.3     
  28 H28           -0.1847     1.4489     1.1644 H       
  29 H29           -0.1539     1.0940    -0.5796 H       
  30 H30            1.5444     4.1751     0.6057 H       
  31 H31            4.8863     1.6461    -2.3463 H       
  32 H32            6.0526     1.5304    -4.5090 H       
  33 H33            4.9672     2.3862    -6.5441 H       
  34 H34            2.7116     3.3614    -6.4288 H       
  35 H35            1.5262     3.4788    -4.2765 H       
  36 H36           -0.5308     4.3210     1.8040 H       
  37 H37           -2.9902     4.4185     1.7327 H       
  38 H38           -4.1933     3.6887    -0.2879 H       
  39 H39           -2.9369     2.8621    -2.2377 H       
  40 H40           -0.4773     2.7690    -2.1681 H       
  41 H41            1.6941     4.7890    -3.2849 H       
  42 H42            0.5703     5.4034    -2.0489 H       
  43 H43            4.1075     5.2492    -3.0999 H       
  44 H44            5.8036     6.8770    -2.3671 H       
  45 H45            5.2516     8.5323    -0.6297 H       
  46 H46            3.0033     8.5604     0.3742 H       
  47 H47            1.3059     6.9357    -0.3621 H       
  48 H48            0.1980    -0.8694     0.7346 H       
  49 H49            1.9373     2.3889     2.2713 H       
  50 H50            2.8381     1.0005     1.6161 H       
  51 H51            3.3794     2.6592     1.2636 H       
@<TRIPOS>BOND
   1    1   26 1
   2    1    3 1
   3    1   28 1
   4    1   29 1
   5    2    3 1
   6    2    4 1
   7    2    8 1
   8    2   30 1
   9    3   27 1
  10    3    6 1
  11    4    5 1
  12    4   19 1
  13    5    6 2
  14    5    7 1
  15    7    9 ar
  16    7   13 ar
  17    8   14 ar
  18    8   18 ar
  19    9   10 ar
  20    9   31 1
  21   10   11 ar
  22   10   32 1
  23   11   12 ar
  24   11   33 1
  25   12   13 ar
  26   12   34 1
  27   13   35 1
  28   14   15 ar
  29   14   36 1
  30   15   16 ar
  31   15   37 1
  32   16   17 ar
  33   16   38 1
  34   17   18 ar
  35   17   39 1
  36   18   40 1
  37   19   20 1
  38   19   41 1
  39   19   42 1
  40   20   21 ar
  41   20   25 ar
  42   21   22 ar
  43   21   43 1
  44   22   23 ar
  45   22   44 1
  46   23   24 ar
  47   23   45 1
  48   24   25 ar
  49   24   46 1
  50   25   47 1
  51   26   48 1
  52   27   49 1
  53   27   50 1
  54   27   51 1

#	End of record

