#	Name: ASD03330788
#	Creating user name:	WinNT
#	Creation time:	15. 06. 2019 20:37

#	Modifying user name:	WinNT
#	Modification time:	15. 06. 2019 20:37

#	Program:	/corina/corina34_cracker 3.40 0067  02.08.2006

@<TRIPOS>MOLECULE
ASD03330788
  57   59    0    0    0
SMALL
NO_CHARGES


@<TRIPOS>ATOM
   1 C1            -0.7116     1.9007    -0.2701 C.2     
   2 N2            -0.9229     0.5604    -0.1793 N.pl3   
   3 C3             0.6296     2.1034    -0.1508 C.2     
   4 N4             1.2182     0.8955    -0.0074 N.2     
   5 C5             0.2945    -0.0369    -0.0291 C.2     
   6 C6             0.5334    -1.4913     0.0898 C.ar    
   7 C7             1.3164     3.4069    -0.1743 C.2     
   8 O8             0.6738     4.4305    -0.3106 O.2     
   9 C9             3.3395     4.7608    -0.0683 C.3     
  10 N10            2.6566     3.4648    -0.0449 N.am    
  11 C11            4.7869     4.5664    -0.5245 C.3     
  12 C12            3.3247     5.3614     1.3138 C.2     
  13 O13            3.2461     4.6418     2.2869 O.2     
  14 C14           -2.2313    -0.0984    -0.2226 C.3     
  15 C15           -3.0405     0.4684    -1.3933 C.3     
  16 C16           -3.8061     1.7071    -0.9392 C.3     
  17 N17           -3.0484     2.4562     0.0651 N.3     
  18 C18           -1.7749     2.9468    -0.4824 C.3     
  19 C19           -0.2336    -2.2576     0.9685 C.ar    
  20 C20           -0.0073    -3.6135     1.0754 C.ar    
  21 C21           -3.8474     3.5614     0.6110 C.3     
  22 N22            3.3990     6.6982     1.4685 N.am    
  23 C23            0.9804    -4.2173     0.3126 C.ar    
  24 C24            4.8026     3.8878    -1.8957 C.3     
  25 C25            5.4783     5.9279    -0.6213 C.3     
  26 C26            5.5271     3.6893     0.4872 C.3     
  27 C27            1.5241    -2.1047    -0.6816 C.ar    
  28 C28            1.7457    -3.4636    -0.5617 C.ar    
  29 F29            1.1976    -5.5462     0.4228 F       
  30 F30            2.2669    -1.3704    -1.5385 F       
  31 H31            2.8270     5.4290    -0.7603 H       
  32 H32            3.1692     2.6485     0.0638 H       
  33 H33           -2.0947    -1.1711    -0.3597 H       
  34 H34           -2.7630     0.0858     0.7109 H       
  35 H35           -2.3643     0.7375    -2.2048 H       
  36 H36           -3.7456    -0.2848    -1.7449 H       
  37 H37           -3.9905     2.3492    -1.8005 H       
  38 H38           -4.7608     1.4007    -0.5118 H       
  39 H39           -1.4888     3.8663     0.0283 H       
  40 H40           -1.8875     3.1409    -1.5491 H       
  41 H41           -1.0031    -1.7892     1.5642 H       
  42 H42           -0.6008    -4.2066     1.7554 H       
  43 H43           -4.7479     3.1626     1.0782 H       
  44 H44           -3.2609     4.1011     1.3545 H       
  45 H45           -4.1264     4.2405    -0.1946 H       
  46 H46            3.3889     7.2777     0.6907 H       
  47 H47            3.4625     7.0807     2.3576 H       
  48 H48            4.2753     4.5127    -2.6165 H       
  49 H49            5.8338     3.7494    -2.2207 H       
  50 H50            4.3101     2.9179    -1.8268 H       
  51 H51            5.5513     6.3697     0.3725 H       
  52 H52            6.4780     5.7990    -1.0360 H       
  53 H53            4.8980     6.5848    -1.2692 H       
  54 H54            5.0345     2.7194     0.5561 H       
  55 H55            6.5583     3.5508     0.1621 H       
  56 H56            5.5159     4.1727     1.4640 H       
  57 H57            2.5108    -3.9398    -1.1568 H       
@<TRIPOS>BOND
   1    1    2 1
   2    1    3 2
   3    1   18 1
   4    2   14 1
   5    2    5 1
   6    3    4 1
   7    3    7 1
   8    4    5 2
   9    5    6 1
  10    6   27 ar
  11    6   19 ar
  12    7    8 2
  13    7   10 am
  14    9   10 1
  15    9   11 1
  16    9   12 1
  17    9   31 1
  18   10   32 1
  19   11   24 1
  20   11   25 1
  21   11   26 1
  22   12   13 2
  23   12   22 am
  24   14   15 1
  25   14   33 1
  26   14   34 1
  27   15   16 1
  28   15   35 1
  29   15   36 1
  30   16   17 1
  31   16   37 1
  32   16   38 1
  33   17   18 1
  34   17   21 1
  35   18   39 1
  36   18   40 1
  37   19   20 ar
  38   19   41 1
  39   20   23 ar
  40   20   42 1
  41   21   43 1
  42   21   44 1
  43   21   45 1
  44   22   46 1
  45   22   47 1
  46   23   29 1
  47   23   28 ar
  48   24   48 1
  49   24   49 1
  50   24   50 1
  51   25   51 1
  52   25   52 1
  53   25   53 1
  54   26   54 1
  55   26   55 1
  56   26   56 1
  57   27   28 ar
  58   27   30 1
  59   28   57 1

#	End of record

