#	Name: ASD03091593
#	Creating user name:	WinNT
#	Creation time:	15. 06. 2019 20:31

#	Modifying user name:	WinNT
#	Modification time:	15. 06. 2019 20:31

#	Program:	/corina/corina34_cracker 3.40 0067  02.08.2006

@<TRIPOS>MOLECULE
ASD03091593
  19   19    0    0    0
SMALL
NO_CHARGES


@<TRIPOS>ATOM
   1 C1            -0.0167     1.3833     0.0096 C.ar    
   2 C2             0.0021    -0.0041     0.0020 C.ar    
   3 C3             1.2081    -0.6771    -0.0131 C.ar    
   4 C4             2.3962     0.0305    -0.0202 C.ar    
   5 C5             2.3801     1.4128    -0.0122 C.ar    
   6 C6             1.1763     2.0908     0.0021 C.ar    
   7 O7            -1.2021     2.0479     0.0189 O.3     
   8 N8             3.6535     2.1671    -0.0193 N.pl3   
   9 O9             4.7150     1.5700    -0.0322 O.2     
  10 O10            3.6400     3.3850    -0.0122 O.2     
  11 C11           -1.2922    -0.7759     0.0107 C.3     
  12 O12           -1.0114    -2.1770     0.0004 O.3     
  13 H13            1.2233    -1.7570    -0.0191 H       
  14 H14            3.3382    -0.4976    -0.0317 H       
  15 H15            1.1643     3.1708     0.0076 H       
  16 H16           -1.5410     2.2355     0.9049 H       
  17 H17           -1.8586    -0.5254     0.9077 H       
  18 H18           -1.8763    -0.5159    -0.8721 H       
  19 H19           -1.8003    -2.7363     0.0053 H       
@<TRIPOS>BOND
   1    1    2 ar
   2    1    6 ar
   3    1    7 1
   4    2    3 ar
   5    2   11 1
   6    3    4 ar
   7    3   13 1
   8    4    5 ar
   9    4   14 1
  10    5    6 ar
  11    5    8 1
  12    6   15 1
  13    7   16 1
  14    8    9 2
  15    8   10 2
  16   11   12 1
  17   11   17 1
  18   11   18 1
  19   12   19 1

#	End of record

