#	Name: ASD06600017
#	Creating user name:	WinNT
#	Creation time:	15. 06. 2019 21:06

#	Modifying user name:	WinNT
#	Modification time:	15. 06. 2019 21:06

#	Program:	/corina/corina34_cracker 3.40 0067  02.08.2006

@<TRIPOS>MOLECULE
ASD06600017
 246  249    0    0    0
SMALL
NO_CHARGES


@<TRIPOS>ATOM
   1 C1             0.6390     3.6758     1.4505 C.2     
   2 O2             0.8439     2.4820     1.5131 O.2     
   3 N3             3.0541     3.8826     1.3348 N.am    
   4 C4             1.7968     4.6344     1.3436 C.3     
   5 C5             1.6747     5.4392     0.0481 C.3     
   6 C6             2.7621     6.4815    -0.0002 C.2     
   7 C7             3.6592     6.6438    -0.9913 C.2     
   8 N8             4.4571     7.6973    -0.6347 N.pl3   
   9 C9             4.0195     8.1424     0.5628 C.2     
  10 N10            3.0024     7.4137     0.9338 N.2     
  11 C11           -2.9816     3.8477     0.9761 C.2     
  12 O12           -2.9244     4.9689     0.5172 O.2     
  13 N13           -0.6244     4.1446     1.4709 N.am    
  14 C14           -1.7502     3.2123     1.5687 C.3     
  15 C15           -2.0073     2.8756     3.0388 C.3     
  16 C16           -6.5729     3.1654     0.9901 C.2     
  17 O17           -6.5055     2.0702     1.5067 O.2     
  18 N18           -4.1464     3.1699     0.9560 N.am    
  19 C19           -5.3434     3.7876     0.3799 C.3     
  20 C20           -5.3554     3.5625    -1.1334 C.3     
  21 C21           -4.1829     4.3117    -1.7697 C.3     
  22 C22           -5.2249     2.0668    -1.4276 C.3     
  23 C23          -10.1693     3.7960     0.8133 C.2     
  24 O24          -10.0307     4.6793    -0.0061 O.2     
  25 N25           -7.7473     3.8261     0.9617 N.am    
  26 C26           -8.9607     3.1854     1.4748 C.3     
  27 C27           -9.0472     3.3948     2.9879 C.3     
  28 C28           -7.9038     2.6794     3.6602 C.2     
  29 C29           -7.0062     3.2336     4.4974 C.2     
  30 N30           -6.1484     2.2360     4.8751 N.pl3   
  31 C31           -6.5520     1.1062     4.2552 C.2     
  32 N32           -7.6053     1.3779     3.5343 N.2     
  33 C33          -13.7800     3.7862     1.3840 C.2     
  34 O34          -13.6657     3.2260     2.4536 O.2     
  35 N35          -11.4042     3.3604     1.1323 N.am    
  36 C36          -12.5791     3.9539     0.4892 C.3     
  37 C37          -12.8370     3.2546    -0.8470 C.3     
  38 C38          -17.4034     4.1177     1.0315 C.2     
  39 O39          -17.3298     4.2560    -0.1711 O.2     
  40 N40          -14.9810     4.2587     0.9957 N.am    
  41 C41          -16.1484     4.0956     1.8656 C.3     
  42 C42          -16.1911     5.2388     2.8815 C.3     
  43 C43          -14.9966     5.1436     3.7954 C.ar    
  44 C44          -13.8205     5.7904     3.4635 C.ar    
  45 C45          -12.7239     5.7043     4.2993 C.ar    
  46 C46          -12.8037     4.9685     5.4727 C.ar    
  47 O47          -11.7265     4.8826     6.2968 O.3     
  48 C48          -13.9851     4.3208     5.8037 C.ar    
  49 C49          -15.0804     4.4143     4.9670 C.ar    
  50 C50          -20.9887     4.4496     1.6626 C.2     
  51 O51          -20.8145     4.7216     2.8316 O.2     
  52 N52          -18.6075     3.9837     1.6220 N.am    
  53 C53          -19.8274     4.0051     0.8112 C.3     
  54 C54          -20.1022     2.6022     0.2661 C.3     
  55 C55          -18.9831     2.2010    -0.6970 C.3     
  56 C56          -19.2579     0.7981    -1.2422 C.3     
  57 N57          -18.1863     0.4140    -2.1643 N.pl3   
  58 C58          -18.2182    -0.8139    -2.7820 C.2     
  59 N59          -19.2019    -1.6362    -2.5471 N.2     
  60 N60          -17.2126    -1.1744    -3.6474 N.pl3   
  61 C61          -24.6327     4.4394     1.3726 C.2     
  62 O62          -24.6066     3.7622     0.3668 O.2     
  63 N63          -22.2209     4.5447     1.1250 N.am    
  64 C64          -23.3499     4.9768     1.9527 C.3     
  65 C65          -23.4047     6.5055     1.9826 C.3     
  66 C66          -22.1764     7.0388     2.6739 C.2     
  67 C67          -21.3078     7.9336     2.1655 C.2     
  68 N68          -20.3467     8.1381     3.1185 N.pl3   
  69 C69          -20.6616     7.3606     4.1767 C.2     
  70 N70          -21.7598     6.7098     3.9057 N.2     
  71 C71          -28.2048     5.0702     1.8261 C.2     
  72 O72          -28.0016     6.0393     2.5266 O.2     
  73 N73          -25.8091     4.7114     1.9715 N.am    
  74 C74          -27.0562     4.1890     1.4075 C.3     
  75 C75          -27.2914     2.7668     1.9203 C.3     
  76 C76          -26.1906     1.8453     1.3911 C.3     
  77 C77          -26.4258     0.4231     1.9038 C.3     
  78 N78          -25.3718    -0.4592     1.3971 N.pl3   
  79 C79          -25.3742    -1.7936     1.7281 C.2     
  80 N80          -24.4364    -2.5786     1.2773 N.2     
  81 N81          -26.3658    -2.3000     2.5347 N.pl3   
  82 C82          -31.8531     4.8413     1.8065 C.2     
  83 O83          -31.8337     3.6727     1.4825 O.2     
  84 N84          -29.4577     4.7815     1.4221 N.am    
  85 C85          -30.5743     5.6382     1.8291 C.3     
  86 C86          -30.6912     6.8176     0.8614 C.3     
  87 C87          -29.4441     7.6966     0.9756 C.3     
  88 C88          -29.5610     8.8759     0.0080 C.3     
  89 N89          -28.3669     9.7176     0.1173 N.pl3   
  90 C90          -28.2462    10.8441    -0.6615 C.2     
  91 N91          -29.1943    11.1633    -1.4971 N.2     
  92 N92          -27.1256    11.6339    -0.5589 N.pl3   
  93 C93          -34.8322     4.6577     0.7299 C.2     
  94 O94          -34.2593     5.2481    -0.1550 O.2     
  95 N95          -33.0183     5.4271     2.1465 N.am    
  96 C96          -34.2615     4.6523     2.1246 C.3     
  97 C97          -35.2695     5.2781     3.0906 C.3     
  98 C98          -34.7256     5.1974     4.5183 C.3     
  99 C99          -35.6633     5.9498     5.4646 C.3     
 100 C100         -34.6360     3.7317     4.9479 C.3     
 101 O101         -35.9770     4.0066     0.4707 O.3     
 102 C102           4.1946     4.4719     1.7454 C.2     
 103 O103           4.1800     5.6246     2.1222 O.2     
 104 C104          22.6064     4.4596     5.2375 C.3     
 105 C105          21.2933     5.2448     5.2467 C.3     
 106 C106          20.1609     4.3508     4.7373 C.3     
 107 C107          18.8478     5.1361     4.7465 C.3     
 108 C108          17.7154     4.2421     4.2371 C.3     
 109 C109          16.4023     5.0273     4.2464 C.3     
 110 C110          15.2699     4.1334     3.7370 C.3     
 111 C111          13.9568     4.9186     3.7462 C.3     
 112 C112          12.8244     4.0247     3.2368 C.3     
 113 C113          11.5113     4.8099     3.2460 C.3     
 114 C114          10.3789     3.9159     2.7366 C.3     
 115 C115           9.0658     4.7011     2.7459 C.3     
 116 C116           7.9334     3.8072     2.2365 C.3     
 117 C117           6.6203     4.5924     2.2457 C.3     
 118 C118           5.4880     3.6985     1.7363 C.3     
 119 H119           3.0658     2.9607     1.0335 H       
 120 H120           1.7858     5.3139     2.1959 H       
 121 H121           1.7748     4.7698    -0.8062 H       
 122 H122           0.7011     5.9281     0.0145 H       
 123 H123           3.7349     6.0555    -1.8939 H       
 124 H124           5.1984     8.0569    -1.1466 H       
 125 H125           4.4391     8.9674     1.1193 H       
 126 H126          -0.7883     5.0994     1.4208 H       
 127 H127          -1.5141     2.2989     1.0226 H       
 128 H128          -1.1167     2.4160     3.4674 H       
 129 H129          -2.2435     3.7889     3.5848 H       
 130 H130          -2.8450     2.1819     3.1116 H       
 131 H131          -4.1921     2.2732     1.3230 H       
 132 H132          -5.3362     4.8575     0.5881 H       
 133 H133          -6.2923     3.9341    -1.5485 H       
 134 H134          -3.2448     3.8631    -1.4429 H       
 135 H135          -4.2573     4.2480    -2.8553 H       
 136 H136          -4.2113     5.3576    -1.4643 H       
 137 H137          -6.0602     1.5331    -0.9742 H       
 138 H138          -5.2335     1.9064    -2.5057 H       
 139 H139          -4.2881     1.6952    -1.0124 H       
 140 H140          -7.7891     4.7257     0.6015 H       
 141 H141          -8.9278     2.1179     1.2571 H       
 142 H142          -8.9906     4.4603     3.2111 H       
 143 H143          -9.9923     2.9961     3.3565 H       
 144 H144          -6.9700     4.2666     4.8103 H       
 145 H145          -5.3920     2.3242     5.4758 H       
 146 H146          -6.0832     0.1374     4.3445 H       
 147 H147         -11.5151     2.6539     1.7876 H       
 148 H148         -12.4009     5.0151     0.3154 H       
 149 H149         -13.0152     2.1934    -0.6732 H       
 150 H150         -13.7112     3.6962    -1.3254 H       
 151 H151         -11.9684     3.3759    -1.4942 H       
 152 H152         -15.0724     4.7067     0.1402 H       
 153 H153         -16.0790     3.1439     2.3923 H       
 154 H154         -16.1710     6.1933     2.3555 H       
 155 H155         -17.1057     5.1677     3.4703 H       
 156 H156         -13.7589     6.3630     2.5499 H       
 157 H157         -11.8052     6.2090     4.0393 H       
 158 H158         -11.6884     5.5776     6.9681 H       
 159 H159         -14.0496     3.7471     6.7164 H       
 160 H160         -16.0017     3.9140     5.2264 H       
 161 H161         -18.6663     3.8730     2.5839 H       
 162 H162         -19.6994     4.6991    -0.0195 H       
 163 H163         -20.1421     1.8926     1.0925 H       
 164 H164         -21.0554     2.5981    -0.2626 H       
 165 H165         -18.9433     2.9106    -1.5235 H       
 166 H166         -18.0299     2.2051    -0.1683 H       
 167 H167         -19.2977     0.0885    -0.4157 H       
 168 H168         -20.2111     0.7940    -1.7708 H       
 169 H169         -17.4543     1.0259    -2.3391 H       
 170 H170         -19.2244    -2.5025    -2.9829 H       
 171 H171         -16.4806    -0.5624    -3.8222 H       
 172 H172         -17.2351    -2.0407    -4.0832 H       
 173 H173         -22.3603     4.3272     0.1900 H       
 174 H174         -23.2229     4.5979     2.9668 H       
 175 H175         -23.4423     6.8878     0.9625 H       
 176 H176         -24.2946     6.8267     2.5239 H       
 177 H177         -21.3594     8.4000     1.1928 H       
 178 H178         -19.5822     8.7308     3.0470 H       
 179 H179         -20.0999     7.2919     5.0966 H       
 180 H180         -25.8300     5.2530     2.7759 H       
 181 H181         -26.9858     4.1761     0.3199 H       
 182 H182         -27.2733     2.7658     3.0101 H       
 183 H183         -28.2613     2.4110     1.5727 H       
 184 H184         -26.2087     1.8462     0.3012 H       
 185 H185         -25.2207     2.2011     1.7386 H       
 186 H186         -26.4077     0.4221     2.9937 H       
 187 H187         -27.3957     0.0673     1.5562 H       
 188 H188         -24.6722    -0.1020     0.8280 H       
 189 H189         -24.4381    -3.5201     1.5109 H       
 190 H190         -27.0637    -1.7158     2.8702 H       
 191 H191         -26.3675    -3.2414     2.7683 H       
 192 H192         -29.6202     4.0065     0.8619 H       
 193 H193         -30.3968     6.0119     2.8375 H       
 194 H194         -30.7798     6.4434    -0.1585 H       
 195 H195         -31.5744     7.4058     1.1106 H       
 196 H196         -29.3555     8.0708     1.9955 H       
 197 H197         -28.5609     7.1083     0.7264 H       
 198 H198         -29.6496     8.5017    -1.0119 H       
 199 H199         -30.4442     9.4642     0.2572 H       
 200 H200         -27.6614     9.4800     0.7392 H       
 201 H201         -29.1091    11.9581    -2.0466 H       
 202 H202         -26.4201    11.3963     0.0630 H       
 203 H203         -27.0405    12.4287    -1.1084 H       
 204 H204         -33.0338     6.3617     2.4057 H       
 205 H205         -34.0555     3.6261     2.4289 H       
 206 H206         -35.4306     6.3221     2.8216 H       
 207 H207         -36.2141     4.7376     3.0305 H       
 208 H208         -33.7338     5.6481     4.5553 H       
 209 H209         -36.6317     5.4502     5.4897 H       
 210 H210         -35.2348     5.9622     6.4668 H       
 211 H211         -35.7914     6.9731     5.1116 H       
 212 H212         -33.9679     3.1957     4.2737 H       
 213 H213         -34.2485     3.6742     5.9650 H       
 214 H214         -35.6277     3.2810     4.9109 H       
 215 H215         -36.3039     4.0384    -0.4388 H       
 216 H216          22.5128     3.5875     5.8846 H       
 217 H217          22.8287     4.1354     4.2208 H       
 218 H218          23.4131     5.0964     5.6004 H       
 219 H219          21.0709     5.5690     6.2633 H       
 220 H220          21.3869     6.1169     4.5995 H       
 221 H221          20.3832     4.0267     3.7206 H       
 222 H222          20.0673     3.4788     5.3845 H       
 223 H223          18.6254     5.4602     5.7632 H       
 224 H224          18.9414     6.0081     4.0993 H       
 225 H225          17.9377     3.9179     3.2205 H       
 226 H226          17.6218     3.3700     4.8843 H       
 227 H227          16.1799     5.3515     5.2630 H       
 228 H228          16.4959     5.8994     3.5992 H       
 229 H229          15.4922     3.8092     2.7203 H       
 230 H230          15.1763     3.2613     4.3841 H       
 231 H231          13.7345     5.2428     4.7628 H       
 232 H232          14.0504     5.7907     3.0990 H       
 233 H233          13.0468     3.7005     2.2202 H       
 234 H234          12.7308     3.1526     3.8840 H       
 235 H235          11.2890     5.1341     4.2627 H       
 236 H236          11.6049     5.6819     2.5989 H       
 237 H237          10.6013     3.5917     1.7200 H       
 238 H238          10.2853     3.0438     3.3838 H       
 239 H239           8.8435     5.0253     3.7625 H       
 240 H240           9.1594     5.5732     2.0987 H       
 241 H241           8.1558     3.4830     1.2198 H       
 242 H242           7.8399     2.9351     2.8837 H       
 243 H243           6.3980     4.9166     3.2624 H       
 244 H244           6.7139     5.4645     1.5985 H       
 245 H245           5.3944     2.8264     2.3835 H       
 246 H246           5.7103     3.3743     0.7197 H       
@<TRIPOS>BOND
   1    1    2 2
   2    1    4 1
   3    1   13 am
   4    3  102 am
   5    3    4 1
   6    3  119 1
   7    4    5 1
   8    4  120 1
   9    5    6 1
  10    5  121 1
  11    5  122 1
  12    6    7 2
  13    6   10 1
  14    7    8 1
  15    7  123 1
  16    8    9 1
  17    8  124 1
  18    9   10 2
  19    9  125 1
  20   11   12 2
  21   11   14 1
  22   11   18 am
  23   13   14 1
  24   13  126 1
  25   14   15 1
  26   14  127 1
  27   15  128 1
  28   15  129 1
  29   15  130 1
  30   16   17 2
  31   16   19 1
  32   16   25 am
  33   18   19 1
  34   18  131 1
  35   19   20 1
  36   19  132 1
  37   20   21 1
  38   20   22 1
  39   20  133 1
  40   21  134 1
  41   21  135 1
  42   21  136 1
  43   22  137 1
  44   22  138 1
  45   22  139 1
  46   23   24 2
  47   23   26 1
  48   23   35 am
  49   25   26 1
  50   25  140 1
  51   26   27 1
  52   26  141 1
  53   27   28 1
  54   27  142 1
  55   27  143 1
  56   28   29 2
  57   28   32 1
  58   29   30 1
  59   29  144 1
  60   30   31 1
  61   30  145 1
  62   31   32 2
  63   31  146 1
  64   33   34 2
  65   33   36 1
  66   33   40 am
  67   35   36 1
  68   35  147 1
  69   36   37 1
  70   36  148 1
  71   37  149 1
  72   37  150 1
  73   37  151 1
  74   38   39 2
  75   38   41 1
  76   38   52 am
  77   40   41 1
  78   40  152 1
  79   41   42 1
  80   41  153 1
  81   42   43 1
  82   42  154 1
  83   42  155 1
  84   43   44 ar
  85   43   49 ar
  86   44   45 ar
  87   44  156 1
  88   45   46 ar
  89   45  157 1
  90   46   47 1
  91   46   48 ar
  92   47  158 1
  93   48   49 ar
  94   48  159 1
  95   49  160 1
  96   50   51 2
  97   50   53 1
  98   50   63 am
  99   52   53 1
 100   52  161 1
 101   53   54 1
 102   53  162 1
 103   54   55 1
 104   54  163 1
 105   54  164 1
 106   55   56 1
 107   55  165 1
 108   55  166 1
 109   56   57 1
 110   56  167 1
 111   56  168 1
 112   57   58 1
 113   57  169 1
 114   58   59 2
 115   58   60 1
 116   59  170 1
 117   60  171 1
 118   60  172 1
 119   61   62 2
 120   61   64 1
 121   61   73 am
 122   63   64 1
 123   63  173 1
 124   64   65 1
 125   64  174 1
 126   65   66 1
 127   65  175 1
 128   65  176 1
 129   66   67 2
 130   66   70 1
 131   67   68 1
 132   67  177 1
 133   68   69 1
 134   68  178 1
 135   69   70 2
 136   69  179 1
 137   71   72 2
 138   71   74 1
 139   71   84 am
 140   73   74 1
 141   73  180 1
 142   74   75 1
 143   74  181 1
 144   75   76 1
 145   75  182 1
 146   75  183 1
 147   76   77 1
 148   76  184 1
 149   76  185 1
 150   77   78 1
 151   77  186 1
 152   77  187 1
 153   78   79 1
 154   78  188 1
 155   79   80 2
 156   79   81 1
 157   80  189 1
 158   81  190 1
 159   81  191 1
 160   82   83 2
 161   82   85 1
 162   82   95 am
 163   84   85 1
 164   84  192 1
 165   85   86 1
 166   85  193 1
 167   86   87 1
 168   86  194 1
 169   86  195 1
 170   87   88 1
 171   87  196 1
 172   87  197 1
 173   88   89 1
 174   88  198 1
 175   88  199 1
 176   89   90 1
 177   89  200 1
 178   90   91 2
 179   90   92 1
 180   91  201 1
 181   92  202 1
 182   92  203 1
 183   93   94 2
 184   93   96 1
 185   93  101 1
 186   95   96 1
 187   95  204 1
 188   96   97 1
 189   96  205 1
 190   97   98 1
 191   97  206 1
 192   97  207 1
 193   98   99 1
 194   98  100 1
 195   98  208 1
 196   99  209 1
 197   99  210 1
 198   99  211 1
 199  100  212 1
 200  100  213 1
 201  100  214 1
 202  101  215 1
 203  102  103 2
 204  102  118 1
 205  104  105 1
 206  104  216 1
 207  104  217 1
 208  104  218 1
 209  105  106 1
 210  105  219 1
 211  105  220 1
 212  106  107 1
 213  106  221 1
 214  106  222 1
 215  107  108 1
 216  107  223 1
 217  107  224 1
 218  108  109 1
 219  108  225 1
 220  108  226 1
 221  109  110 1
 222  109  227 1
 223  109  228 1
 224  110  111 1
 225  110  229 1
 226  110  230 1
 227  111  112 1
 228  111  231 1
 229  111  232 1
 230  112  113 1
 231  112  233 1
 232  112  234 1
 233  113  114 1
 234  113  235 1
 235  113  236 1
 236  114  115 1
 237  114  237 1
 238  114  238 1
 239  115  116 1
 240  115  239 1
 241  115  240 1
 242  116  117 1
 243  116  241 1
 244  116  242 1
 245  117  118 1
 246  117  243 1
 247  117  244 1
 248  118  245 1
 249  118  246 1

#	End of record

