#	Name: ASD01912248
#	Creating user name:	WinNT
#	Creation time:	15. 06. 2019 19:59

#	Modifying user name:	WinNT
#	Modification time:	15. 06. 2019 19:59

#	Program:	/corina/corina34_cracker 3.40 0067  02.08.2006

@<TRIPOS>MOLECULE
ASD01912248
  47   49    0    0    0
SMALL
NO_CHARGES


@<TRIPOS>ATOM
   1 C1            -2.5024     4.1584     0.1058 C.1     
   2 C2            -1.2469     3.4713     0.0599 C.ar    
   3 C3            -0.0517     4.1960     0.0534 C.ar    
   4 C4             1.1579     3.5272     0.0095 C.ar    
   5 C5             1.1824     2.1322    -0.0283 C.ar    
   6 C6            -0.0044     1.4145    -0.0218 C.ar    
   7 C7            -1.2139     2.0752     0.0273 C.ar    
   8 N8            -3.4984     4.7035     0.1422 N.1     
   9 N9             2.3573     4.2490     0.0024 N.3     
  10 C10            3.1179     4.0178     1.2368 C.3     
  11 C11            4.5197     4.6211     1.0917 C.3     
  12 C12            4.3713     6.0735     0.6894 C.2     
  13 C13            3.4427     6.3954    -0.4627 C.3     
  14 C14            2.1094     5.6792    -0.2189 C.3     
  15 C15            5.0353     7.0360     1.3279 C.2     
  16 C16            4.8772     8.4018     0.9276 C.1     
  17 C17            4.7476     9.5215     0.5993 C.1     
  18 C18            4.5895    10.8873     0.1989 C.ar    
  19 C19            5.2885    11.8933     0.8723 C.ar    
  20 C20            5.1246    13.2070     0.4731 C.ar    
  21 C21            4.2680    13.4767    -0.5862 C.ar    
  22 C22            3.6070    12.4336    -1.2086 C.ar    
  23 N23            3.7829    11.1892    -0.8145 N.ar    
  24 C24            2.6770    12.7241    -2.3583 C.3     
  25 O25            2.3712     1.4760    -0.0719 O.3     
  26 C26            2.3232     0.0483    -0.1089 C.3     
  27 H27           -0.0729     5.2754     0.0823 H       
  28 H28            0.0188     0.3351    -0.0514 H       
  29 H29           -2.1360     1.5131     0.0367 H       
  30 H30            2.6040     4.4895     2.0743 H       
  31 H31            3.2004     2.9460     1.4176 H       
  32 H32            5.0485     4.5553     2.0426 H       
  33 H33            5.0744     4.0818     0.3239 H       
  34 H34            3.2781     7.4717    -0.5126 H       
  35 H35            3.8818     6.0464    -1.3973 H       
  36 H36            1.4642     5.8061    -1.0882 H       
  37 H37            1.6238     6.1042     0.6596 H       
  38 H38            5.6927     6.7862     2.1476 H       
  39 H39            5.9468    11.6482     1.6927 H       
  40 H40            5.6509    14.0058     0.9743 H       
  41 H41            4.1189    14.4927    -0.9208 H       
  42 H42            3.2349    12.6916    -3.2941 H       
  43 H43            1.8840    11.9767    -2.3819 H       
  44 H44            2.2394    13.7142    -2.2304 H       
  45 H45            3.3378    -0.3486    -0.1417 H       
  46 H46            1.8171    -0.3214     0.7829 H       
  47 H47            1.7780    -0.2740    -0.9960 H       
@<TRIPOS>BOND
   1    1    2 1
   2    1    8 3
   3    2    3 ar
   4    2    7 ar
   5    3    4 ar
   6    3   27 1
   7    4    5 ar
   8    4    9 1
   9    5    6 ar
  10    5   25 1
  11    6    7 ar
  12    6   28 1
  13    7   29 1
  14    9   10 1
  15    9   14 1
  16   10   11 1
  17   10   30 1
  18   10   31 1
  19   11   12 1
  20   11   32 1
  21   11   33 1
  22   12   13 1
  23   12   15 2
  24   13   14 1
  25   13   34 1
  26   13   35 1
  27   14   36 1
  28   14   37 1
  29   15   16 1
  30   15   38 1
  31   16   17 3
  32   17   18 1
  33   18   19 ar
  34   18   23 ar
  35   19   20 ar
  36   19   39 1
  37   20   21 ar
  38   20   40 1
  39   21   22 ar
  40   21   41 1
  41   22   23 ar
  42   22   24 1
  43   24   42 1
  44   24   43 1
  45   24   44 1
  46   25   26 1
  47   26   45 1
  48   26   46 1
  49   26   47 1

#	End of record

