#	Name: ASD01881841
#	Creating user name:	WinNT
#	Creation time:	15. 06. 2019 19:43

#	Modifying user name:	WinNT
#	Modification time:	15. 06. 2019 19:43

#	Program:	/corina/corina34_cracker 3.40 0067  02.08.2006

@<TRIPOS>MOLECULE
ASD01881841
  48   52    0    0    0
SMALL
NO_CHARGES


@<TRIPOS>ATOM
   1 C1            -0.0161     1.3337     0.0094 C.2     
   2 N2             0.0021    -0.0041     0.0020 N.am    
   3 C3             1.2613    -0.4841    -0.0126 C.2     
   4 C4             2.1640     0.7337    -0.0147 C.3     
   5 N5             1.2200     1.8645     0.0004 N.am    
   6 O6            -1.0354     1.9955     0.0180 O.2     
   7 O7             1.6013    -1.6477    -0.0215 O.2     
   8 C8            -1.1986    -0.8435     0.0097 C.3     
   9 C9             1.5609     3.2893     0.0041 C.3     
  10 C10            1.6916     3.7708     1.4261 C.ar    
  11 C11            2.9399     3.8057     2.0209 C.ar    
  12 C12            3.0554     4.2487     3.3270 C.ar    
  13 C13            1.8945     4.6463     3.9974 C.ar    
  14 C14            0.6740     4.5813     3.3279 C.ar    
  15 N15            0.6146     4.1575     2.0820 N.ar    
  16 C16            1.8481     6.5416     9.3834 C.2     
  17 N17            0.5397     6.7889     9.5656 N.am    
  18 C18           -0.1801     6.4571     8.3308 C.3     
  19 C19            0.8608     5.9690     7.3541 C.ar    
  20 C20            0.7953     5.5232     6.0572 C.ar    
  21 C21            1.9610     5.1288     5.3979 C.ar    
  22 C22            3.1885     5.1887     6.0585 C.ar    
  23 C23            3.2540     5.6351     7.3587 C.ar    
  24 C24            2.0882     6.0307     8.0212 C.ar    
  25 O25            2.7115     6.7189    10.2208 O.2     
  26 C26           -0.0680     7.3044    10.7949 C.3     
  27 C27            0.0962     6.4710    12.0674 C.3     
  28 C28            0.8738     7.7784    11.9036 C.3     
  29 H29            2.7924     0.7467     0.8759 H       
  30 H30            2.7753     0.7564    -0.9169 H       
  31 H31           -1.5068    -1.0461    -1.0159 H       
  32 H32           -0.9813    -1.7838     0.5163 H       
  33 H33           -2.0010    -0.3250     0.5345 H       
  34 H34            2.5060     3.4381    -0.5182 H       
  35 H35            0.7749     3.8522    -0.4994 H       
  36 H36            3.8150     3.4903     1.4722 H       
  37 H37            4.0176     4.2859     3.8161 H       
  38 H38           -0.2307     4.8850     3.8336 H       
  39 H39           -0.9111     5.6718     8.5228 H       
  40 H40           -0.6767     7.3438     7.9369 H       
  41 H41           -0.1562     5.4774     5.5482 H       
  42 H42            4.0900     4.8834     5.5481 H       
  43 H43            4.2057     5.6795     7.8673 H       
  44 H44           -1.0054     7.8452    10.6650 H       
  45 H45           -0.7330     6.4638    12.7749 H       
  46 H46            0.6564     5.5391    11.9900 H       
  47 H47            1.9456     7.7067    11.7183 H       
  48 H48            0.5562     8.6314    12.5032 H       
@<TRIPOS>BOND
   1    1    2 am
   2    1    5 am
   3    1    6 2
   4    2    3 am
   5    2    8 1
   6    3    4 1
   7    3    7 2
   8    4    5 1
   9    4   29 1
  10    4   30 1
  11    5    9 1
  12    8   31 1
  13    8   32 1
  14    8   33 1
  15    9   10 1
  16    9   34 1
  17    9   35 1
  18   10   11 ar
  19   10   15 ar
  20   11   12 ar
  21   11   36 1
  22   12   13 ar
  23   12   37 1
  24   13   14 ar
  25   13   21 1
  26   14   15 ar
  27   14   38 1
  28   16   17 am
  29   16   24 1
  30   16   25 2
  31   17   18 1
  32   17   26 1
  33   18   19 1
  34   18   39 1
  35   18   40 1
  36   19   20 ar
  37   19   24 ar
  38   20   21 ar
  39   20   41 1
  40   21   22 ar
  41   22   23 ar
  42   22   42 1
  43   23   24 ar
  44   23   43 1
  45   26   27 1
  46   26   28 1
  47   26   44 1
  48   27   28 1
  49   27   45 1
  50   27   46 1
  51   28   47 1
  52   28   48 1

#	End of record

