#	Name: ASD04880017
#	Creating user name:	WinNT
#	Creation time:	15. 06. 2019 20:52

#	Modifying user name:	WinNT
#	Modification time:	15. 06. 2019 20:52

#	Program:	/corina/corina34_cracker 3.40 0067  02.08.2006

@<TRIPOS>MOLECULE
ASD04880017
  44   46    0    0    0
SMALL
NO_CHARGES


@<TRIPOS>ATOM
   1 C1            -0.0144     1.2117     0.0087 C.2     
   2 O2             0.0626    -0.0016    -0.0136 O.2     
   3 C3             1.2154     2.0308    -0.0197 C.ar    
   4 C4             1.1302     3.4192    -0.1381 C.ar    
   5 C5             2.2840     4.1787    -0.1636 C.ar    
   6 C6             3.5229     3.5640    -0.0718 C.ar    
   7 C7             3.6119     2.1888     0.0452 C.ar    
   8 C8             2.4667     1.4199     0.0775 C.ar    
   9 F9             2.2046     5.5225    -0.2785 F       
  10 N10           -1.2214     1.8096     0.0538 N.am    
  11 N11           -1.4433     3.1780     0.1950 N.2     
  12 C12           -2.6878     3.5105     0.2110 C.2     
  13 C13           -3.5435     2.2723     0.0669 C.3     
  14 C14           -2.5202     1.1247    -0.0445 C.3     
  15 C15           -3.1992     4.8869     0.3490 C.ar    
  16 C16           -2.3097     5.9565     0.4757 C.ar    
  17 C17           -2.7951     7.2412     0.6044 C.ar    
  18 C18           -4.1595     7.4716     0.6088 C.ar    
  19 C19           -5.0464     6.4169     0.4837 C.ar    
  20 C20           -4.5752     5.1277     0.3480 C.ar    
  21 C21           -4.6820     8.8779     0.7509 C.3     
  22 N22           -4.8314     9.4816    -0.5800 N.3     
  23 C23           -5.8756     8.7974    -1.3542 C.3     
  24 C24           -5.1097    10.9204    -0.4772 C.3     
  25 H25            0.1649     3.8982    -0.2100 H       
  26 H26            4.4224     4.1614    -0.0921 H       
  27 H27            4.5803     1.7159     0.1159 H       
  28 H28            2.5385     0.3465     0.1734 H       
  29 H29           -4.1765     2.1407     0.9445 H       
  30 H30           -4.1491     2.3291    -0.8375 H       
  31 H31           -2.6141     0.6165    -1.0042 H       
  32 H32           -2.6455     0.4202     0.7777 H       
  33 H33           -1.2445     5.7780     0.4732 H       
  34 H34           -2.1086     8.0691     0.7025 H       
  35 H35           -6.1100     6.6040     0.4883 H       
  36 H36           -5.2685     4.3059     0.2460 H       
  37 H37           -5.6502     8.8570     1.2511 H       
  38 H38           -3.9809     9.4682     1.3410 H       
  39 H39           -6.8268     8.8729    -0.8274 H       
  40 H40           -5.9654     9.2643    -2.3351 H       
  41 H41           -5.6093     7.7473    -1.4746 H       
  42 H42           -4.2867    11.4136     0.0399 H       
  43 H43           -5.2158    11.3422    -1.4767 H       
  44 H44           -6.0333    11.0728     0.0814 H       
@<TRIPOS>BOND
   1    1    2 2
   2    1    3 1
   3    1   10 am
   4    3    4 ar
   5    3    8 ar
   6    4    5 ar
   7    4   25 1
   8    5    6 ar
   9    5    9 1
  10    6    7 ar
  11    6   26 1
  12    7    8 ar
  13    7   27 1
  14    8   28 1
  15   10   11 1
  16   10   14 1
  17   11   12 2
  18   12   13 1
  19   12   15 1
  20   13   14 1
  21   13   29 1
  22   13   30 1
  23   14   31 1
  24   14   32 1
  25   15   16 ar
  26   15   20 ar
  27   16   17 ar
  28   16   33 1
  29   17   18 ar
  30   17   34 1
  31   18   19 ar
  32   18   21 1
  33   19   20 ar
  34   19   35 1
  35   20   36 1
  36   21   22 1
  37   21   37 1
  38   21   38 1
  39   22   23 1
  40   22   24 1
  41   23   39 1
  42   23   40 1
  43   23   41 1
  44   24   42 1
  45   24   43 1
  46   24   44 1

#	End of record

