#	Name: ASD01410113
#	Creating user name:	WinNT
#	Creation time:	15. 06. 2019 19:16

#	Modifying user name:	WinNT
#	Modification time:	15. 06. 2019 19:16

#	Program:	/corina/corina34_cracker 3.40 0067  02.08.2006

@<TRIPOS>MOLECULE
ASD01410113
  83   87    0    0    0
SMALL
NO_CHARGES


@<TRIPOS>ATOM
   1 C1             0.2683     1.7070     0.4066 C.ar    
   2 C2             0.3559     0.3091     0.4851 C.ar    
   3 C3            -0.7725    -0.4508     0.5284 C.ar    
   4 C4            -2.0333     0.1622     0.4946 C.ar    
   5 C5            -2.1312     1.5669     0.4157 C.ar    
   6 C6            -0.9778     2.3329     0.3778 C.ar    
   7 C7            -3.3563    -0.3396     0.5240 C.2     
   8 C8            -4.2039     0.7195     0.4651 C.2     
   9 N9            -3.4748     1.8830     0.3991 N.pl3   
  10 C10           -5.6796     0.6346     0.4704 C.ar    
  11 C11           -3.7536    -1.7910     0.6055 C.3     
  12 C12           -3.1931    -2.5419    -0.6040 C.3     
  13 C13           -3.5964    -4.0154    -0.5212 C.3     
  14 C14           -3.0344    -4.6266     0.7639 C.3     
  15 C15           -3.5950    -3.8757     1.9733 C.3     
  16 C16           -3.1916    -2.4022     1.8906 C.3     
  17 C17            1.4981     2.5179     0.3603 C.2     
  18 O18            2.7037     1.9162     0.3935 O.3     
  19 C19           -4.0321     3.2357     0.3230 C.3     
  20 C20           -4.2224     3.7796     1.7155 C.2     
  21 N21           -4.7262     5.0171     1.8926 N.am    
  22 O22            1.4252     3.7290     0.2923 O.2     
  23 O23           -3.9221     3.1038     2.6768 O.2     
  24 C24           -4.9175     5.5611     3.2440 C.3     
  25 C25           -6.3689     6.0303     3.3857 C.3     
  26 C26           -6.6948     7.0145     2.2599 C.3     
  27 C27           -6.5436     6.3139     0.9078 C.3     
  28 C28           -5.0889     5.8500     0.7379 C.3     
  29 N29           -8.0757     7.4921     2.4119 N.3     
  30 C30           -8.3866     8.5286     1.4184 C.3     
  31 C31           -9.0301     6.3786     2.3273 C.3     
  32 C32           -6.4272     1.4935     1.2783 C.ar    
  33 C33           -7.8030     1.4112     1.2804 C.ar    
  34 C34           -8.4458     0.4754     0.4804 C.ar    
  35 C35           -7.7057    -0.3808    -0.3246 C.ar    
  36 C36           -6.3297    -0.3009    -0.3367 C.ar    
  37 O37           -9.8020     0.3971     0.4856 O.3     
  38 C38          -10.3982    -0.5878    -0.3609 C.3     
  39 C39           -7.7198     9.8435     1.8275 C.3     
  40 C40          -10.3877     6.8281     2.8711 C.3     
  41 H41            1.3248    -0.1672     0.5111 H       
  42 H42           -0.6969    -1.5265     0.5885 H       
  43 H43           -1.0430     3.4092     0.3174 H       
  44 H44           -4.8407    -1.8704     0.6105 H       
  45 H45           -3.5934    -2.1064    -1.5195 H       
  46 H46           -2.1060    -2.4625    -0.6090 H       
  47 H47           -4.6835    -4.0948    -0.5162 H       
  48 H48           -3.1970    -4.5504    -1.3829 H       
  49 H49           -3.3218    -5.6764     0.8228 H       
  50 H50           -1.9473    -4.5472     0.7588 H       
  51 H51           -4.6821    -3.9551     1.9784 H       
  52 H52           -3.1946    -4.3111     2.8889 H       
  53 H53           -2.1046    -2.3228     1.8855 H       
  54 H54           -3.5910    -1.8672     2.7522 H       
  55 H55            3.4816     2.4897     0.3609 H       
  56 H56           -3.3474     3.8802    -0.2284 H       
  57 H57           -4.9936     3.2043    -0.1893 H       
  58 H58           -4.7102     4.7866     3.9824 H       
  59 H59           -4.2442     6.4045     3.3971 H       
  60 H60           -7.0368     5.1713     3.3226 H       
  61 H61           -6.4995     6.5233     4.3490 H       
  62 H62           -6.0105     7.8615     2.3086 H       
  63 H63           -7.2098     5.4521     0.8680 H       
  64 H64           -6.7984     7.0087     0.1075 H       
  65 H65           -4.4321     6.7183     0.6862 H       
  66 H66           -4.9966     5.2645    -0.1768 H       
  67 H67           -8.0128     8.2199     0.4422 H       
  68 H68           -9.4662     8.6696     1.3662 H       
  69 H69           -9.1390     6.0716     1.2871 H       
  70 H70           -8.6623     5.5391     2.9173 H       
  71 H71           -5.9281     2.2212     1.9010 H       
  72 H72           -8.3820     2.0750     1.9053 H       
  73 H73           -8.2092    -1.1074    -0.9451 H       
  74 H74           -5.7549    -0.9668    -0.9633 H       
  75 H75          -10.0465    -1.5777    -0.0702 H       
  76 H76          -11.4828    -0.5439    -0.2615 H       
  77 H77          -10.1201    -0.3931    -1.3967 H       
  78 H78           -8.1553    10.1963     2.7623 H       
  79 H79           -6.6504     9.6818     1.9631 H       
  80 H80           -7.8786    10.5891     1.0485 H       
  81 H81          -10.7989     7.6041     2.2255 H       
  82 H82          -11.0689     5.9775     2.8961 H       
  83 H83          -10.2626     7.2230     3.8794 H       
@<TRIPOS>BOND
   1    1    2 ar
   2    1   17 1
   3    1    6 ar
   4    2    3 ar
   5    2   41 1
   6    3    4 ar
   7    3   42 1
   8    4    5 ar
   9    4    7 1
  10    5    6 ar
  11    5    9 1
  12    6   43 1
  13    7    8 2
  14    7   11 1
  15    8    9 1
  16    8   10 1
  17    9   19 1
  18   10   32 ar
  19   10   36 ar
  20   11   12 1
  21   11   16 1
  22   11   44 1
  23   12   13 1
  24   12   45 1
  25   12   46 1
  26   13   14 1
  27   13   47 1
  28   13   48 1
  29   14   15 1
  30   14   49 1
  31   14   50 1
  32   15   16 1
  33   15   51 1
  34   15   52 1
  35   16   53 1
  36   16   54 1
  37   17   18 1
  38   17   22 2
  39   18   55 1
  40   19   20 1
  41   19   56 1
  42   19   57 1
  43   20   21 am
  44   20   23 2
  45   21   24 1
  46   21   28 1
  47   24   25 1
  48   24   58 1
  49   24   59 1
  50   25   26 1
  51   25   60 1
  52   25   61 1
  53   26   27 1
  54   26   29 1
  55   26   62 1
  56   27   28 1
  57   27   63 1
  58   27   64 1
  59   28   65 1
  60   28   66 1
  61   29   30 1
  62   29   31 1
  63   30   39 1
  64   30   67 1
  65   30   68 1
  66   31   40 1
  67   31   69 1
  68   31   70 1
  69   32   33 ar
  70   32   71 1
  71   33   34 ar
  72   33   72 1
  73   34   35 ar
  74   34   37 1
  75   35   36 ar
  76   35   73 1
  77   36   74 1
  78   37   38 1
  79   38   75 1
  80   38   76 1
  81   38   77 1
  82   39   78 1
  83   39   79 1
  84   39   80 1
  85   40   81 1
  86   40   82 1
  87   40   83 1

#	End of record

