#	Name: ASD01840371
#	Creating user name:	WinNT
#	Creation time:	15. 06. 2019 19:37

#	Modifying user name:	WinNT
#	Modification time:	15. 06. 2019 19:37

#	Program:	/corina/corina34_cracker 3.40 0067  02.08.2006

@<TRIPOS>MOLECULE
ASD01840371
  42   44    0    0    0
SMALL
NO_CHARGES


@<TRIPOS>ATOM
   1 C1             0.2610     1.7549    -0.9980 C.ar    
   2 C2             0.3840     0.5320    -1.6193 C.ar    
   3 N3             1.4992    -0.1678    -1.4965 N.ar    
   4 N4             2.5001     0.2427    -0.8112 N.ar    
   5 C5             1.3549     2.2266    -0.2363 C.ar    
   6 C6             1.5104     3.4570     0.5172 C.2     
   7 C7             2.4929     1.4123    -0.1669 C.ar    
   8 S8             3.7251     2.1827     0.8223 S.3     
   9 C9             2.7119     3.5785     1.1344 C.2     
  10 C10           -1.0000     2.5692    -1.1311 C.3     
  11 C11           -0.7564    -0.0106    -2.4416 C.3     
  12 N12            0.5177     4.4241     0.5986 N.pl3   
  13 C13            3.1098     4.7235     1.9521 C.2     
  14 O14            2.3396     5.6522     2.1150 O.2     
  15 N15            4.3293     4.7508     2.5253 N.am    
  16 C16            4.7281     5.8981     3.3445 C.3     
  17 C17            6.1259     5.6823     3.8645 C.ar    
  18 C18            7.2112     6.1233     3.1301 C.ar    
  19 C19            8.4937     5.9268     3.6046 C.ar    
  20 C20            8.6921     5.2863     4.8192 C.ar    
  21 C21            7.6014     4.8448     5.5542 C.ar    
  22 C22            6.3208     5.0488     5.0780 C.ar    
  23 O23            9.9527     5.0914     5.2879 O.3     
  24 C24           10.0814     4.4249     6.5454 C.3     
  25 F25            9.5115     3.1502     6.4581 F       
  26 F26           11.4361     4.3085     6.8749 F       
  27 F27            9.4227     5.1634     7.5342 F       
  28 H28           -1.6441     2.3847    -0.2714 H       
  29 H29           -0.7458     3.6283    -1.1740 H       
  30 H30           -1.5222     2.2837    -2.0443 H       
  31 H31           -0.6496     0.3211    -3.4744 H       
  32 H32           -0.7434    -1.0999    -2.4066 H       
  33 H33           -1.7010     0.3547    -2.0385 H       
  34 H34           -0.4030     4.1919     0.4002 H       
  35 H35            0.7448     5.3320     0.8537 H       
  36 H36            4.9429     4.0109     2.3955 H       
  37 H37            4.7015     6.8038     2.7387 H       
  38 H38            4.0402     6.0019     4.1837 H       
  39 H39            7.0563     6.6215     2.1845 H       
  40 H40            9.3411     6.2711     3.0304 H       
  41 H41            7.7533     4.3459     6.4999 H       
  42 H42            5.4712     4.7095     5.6520 H       
@<TRIPOS>BOND
   1    1    2 ar
   2    1    5 ar
   3    1   10 1
   4    2   11 1
   5    2    3 ar
   6    3    4 ar
   7    4    7 ar
   8    5    7 ar
   9    5    6 1
  10    6    9 2
  11    6   12 1
  12    7    8 1
  13    8    9 1
  14    9   13 1
  15   10   28 1
  16   10   29 1
  17   10   30 1
  18   11   31 1
  19   11   32 1
  20   11   33 1
  21   12   34 1
  22   12   35 1
  23   13   14 2
  24   13   15 am
  25   15   16 1
  26   15   36 1
  27   16   17 1
  28   16   37 1
  29   16   38 1
  30   17   18 ar
  31   17   22 ar
  32   18   19 ar
  33   18   39 1
  34   19   20 ar
  35   19   40 1
  36   20   21 ar
  37   20   23 1
  38   21   22 ar
  39   21   41 1
  40   22   42 1
  41   23   24 1
  42   24   25 1
  43   24   26 1
  44   24   27 1

#	End of record

