#	Name: ASD07930786
#	Creating user name:	WinNT
#	Creation time:	15. 06. 2019 21:13

#	Modifying user name:	WinNT
#	Modification time:	15. 06. 2019 21:13

#	Program:	/corina/corina34_cracker 3.40 0067  02.08.2006

@<TRIPOS>MOLECULE
ASD07930786
  50   52    0    0    0
SMALL
NO_CHARGES


@<TRIPOS>ATOM
   1 C1            -0.0343     1.4581     0.0425 C.3     
   2 N2             0.7953    -0.4133    -2.1302 N.2     
   3 N3            -0.8904    -1.7835    -1.2685 N.pl3   
   4 C4            -0.9150    -2.8271    -0.2382 C.3     
   5 C5            -1.2300    -2.1885     1.1215 C.3     
   6 S6             0.0061    -0.8913     1.4435 S.o2    
   7 N7            -0.0141    -0.0067     0.0315 N.am    
   8 C8            -0.0113    -0.7260    -1.1551 C.2     
   9 C9             0.4500    -3.5153    -0.1755 C.3     
  10 C10           -1.9765    -3.8423    -0.5755 C.ar    
  11 C11           -2.8068    -3.6380    -1.6597 C.ar    
  12 C12           -3.7850    -4.5740    -1.9701 C.ar    
  13 C13           -3.9256    -5.7133    -1.1890 C.ar    
  14 C14           -3.0929    -5.9137    -0.1053 C.ar    
  15 C15           -2.1147    -4.9822     0.1989 C.ar    
  16 O16           -0.4576     0.0117     2.4378 O.2     
  17 O17            1.3140    -1.4440     1.5004 O.2     
  18 N18           -4.6279    -4.3688    -3.0682 N.am    
  19 C19           -5.0478    -5.4191    -3.8009 C.2     
  20 C20           -6.0288    -5.2176    -4.8847 C.ar    
  21 O21           -4.6183    -6.5329    -3.5689 O.2     
  22 N22           -6.4947    -3.9979    -5.1335 N.ar    
  23 C23           -7.3676    -3.7733    -6.0878 C.ar    
  24 C24           -7.8441    -4.8139    -6.8835 C.ar    
  25 C25           -7.3855    -6.1064    -6.6603 C.ar    
  26 C26           -6.4570    -6.3127    -5.6465 C.ar    
  27 F27           -1.3013    -5.1800     1.2593 F       
  28 O28           -5.9807    -7.5571    -5.3917 O.3     
  29 O29           -8.7473    -4.5672    -7.8661 O.3     
  30 C30           -9.1705    -3.2125    -8.0331 C.3     
  31 H31            0.9882     1.8357     0.0394 H       
  32 H32           -0.5582     1.8209    -0.8419 H       
  33 H33           -0.5480     1.8078     0.9380 H       
  34 H34            1.4070     0.3331    -2.0331 H       
  35 H35           -1.4883    -1.8387    -2.0302 H       
  36 H36           -2.2270    -1.7484     1.0987 H       
  37 H37           -1.1800    -2.9460     1.9037 H       
  38 H38            1.2165    -2.7804     0.0704 H       
  39 H39            0.4311    -4.2908     0.5903 H       
  40 H40            0.6749    -3.9651    -1.1426 H       
  41 H41           -2.6960    -2.7510    -2.2657 H       
  42 H42           -4.6858    -6.4422    -1.4284 H       
  43 H43           -3.2019    -6.7998     0.5025 H       
  44 H44           -4.9099    -3.4706    -3.3020 H       
  45 H45           -7.7220    -2.7676    -6.2587 H       
  46 H46           -7.7391    -6.9303    -7.2624 H       
  47 H47           -5.1852    -7.7839    -5.8927 H       
  48 H48           -9.8905    -3.1548    -8.8494 H       
  49 H49           -9.6362    -2.8612    -7.1123 H       
  50 H50           -8.3076    -2.5883    -8.2650 H       
@<TRIPOS>BOND
   1    1    7 1
   2    1   31 1
   3    1   32 1
   4    1   33 1
   5    2    8 2
   6    2   34 1
   7    3    4 1
   8    3    8 1
   9    3   35 1
  10    4    5 1
  11    4    9 1
  12    4   10 1
  13    5    6 1
  14    5   36 1
  15    5   37 1
  16    6    7 am
  17    6   16 2
  18    6   17 2
  19    7    8 1
  20    9   38 1
  21    9   39 1
  22    9   40 1
  23   10   11 ar
  24   10   15 ar
  25   11   12 ar
  26   11   41 1
  27   12   13 ar
  28   12   18 1
  29   13   14 ar
  30   13   42 1
  31   14   15 ar
  32   14   43 1
  33   15   27 1
  34   18   19 am
  35   18   44 1
  36   19   20 1
  37   19   21 2
  38   20   22 ar
  39   20   26 ar
  40   22   23 ar
  41   23   24 ar
  42   23   45 1
  43   24   25 ar
  44   24   29 1
  45   25   26 ar
  46   25   46 1
  47   26   28 1
  48   28   47 1
  49   29   30 1
  50   30   48 1
  51   30   49 1
  52   30   50 1

#	End of record

