#	Name: ASD02560514
#	Creating user name:	WinNT
#	Creation time:	15. 06. 2019 20:25

#	Modifying user name:	WinNT
#	Modification time:	15. 06. 2019 20:25

#	Program:	/corina/corina34_cracker 3.40 0067  02.08.2006

@<TRIPOS>MOLECULE
ASD02560514
  40   43    0    0    0
SMALL
NO_CHARGES


@<TRIPOS>ATOM
   1 C1             4.4555     1.4980     3.7756 C.2     
   2 C2             4.9860     0.2291     3.4820 C.2     
   3 C3             4.6219    -0.4175     2.3565 C.2     
   4 N4             3.7324     0.1493     1.4841 N.pl3   
   5 C5             3.1967     1.3895     1.7446 C.2     
   6 C6             3.5710     2.0750     2.9198 C.2     
   7 C7             3.2049    -0.2808     0.2975 C.2     
   8 C8             2.3538     0.7113    -0.1435 C.2     
   9 N9             2.3738     1.7087     0.7590 N.2     
  10 C10            1.5576     0.6835    -1.3928 C.ar    
  11 N11            3.4759    -1.4895    -0.3437 N.pl3   
  12 C12            4.4822    -1.5571    -1.3103 C.ar    
  13 C13            0.8236    -0.4529    -1.7299 C.ar    
  14 C14            1.5347     1.7971    -2.2341 C.ar    
  15 C15            4.8238    -2.7807    -1.8766 C.ar    
  16 C16            5.1401    -0.4019    -1.7124 C.ar    
  17 C17            6.1343    -0.4722    -2.6688 C.ar    
  18 C18            6.4750    -1.6907    -3.2265 C.ar    
  19 C19            5.8192    -2.8431    -2.8325 C.ar    
  20 C20            5.1998    -1.7765     2.0560 C.3     
  21 Cl21           4.0010    -4.2272    -1.3825 Cl      
  22 C22            0.0835    -0.4727    -2.8947 C.ar    
  23 C23            0.0689     0.6315    -3.7277 C.ar    
  24 C24            0.7904     1.7647    -3.3966 C.ar    
  25 Cl25           2.4395     3.2195    -1.8197 Cl      
  26 H26            4.7466     2.0105     4.6806 H       
  27 H27            5.6891    -0.2296     4.1615 H       
  28 H28            3.1586     3.0492     3.1373 H       
  29 H29            2.9658    -2.2831    -0.1183 H       
  30 H30            0.8345    -1.3161    -1.0811 H       
  31 H31            4.8743     0.5505    -1.2779 H       
  32 H32            6.6461     0.4259    -2.9816 H       
  33 H33            7.2526    -1.7422    -3.9743 H       
  34 H34            6.0878    -3.7932    -3.2703 H       
  35 H35            5.8124    -2.1046     2.8957 H       
  36 H36            4.3900    -2.4885     1.8969 H       
  37 H37            5.8149    -1.7192     1.1580 H       
  38 H38           -0.4853    -1.3526    -3.1566 H       
  39 H39           -0.5113     0.6105    -4.6383 H       
  40 H40            0.7748     2.6239    -4.0507 H       
@<TRIPOS>BOND
   1    1    2 1
   2    1    6 2
   3    1   26 1
   4    2    3 2
   5    2   27 1
   6    3    4 1
   7    3   20 1
   8    4    5 1
   9    4    7 1
  10    5    6 1
  11    5    9 2
  12    6   28 1
  13    7    8 2
  14    7   11 1
  15    8    9 1
  16    8   10 1
  17   10   13 ar
  18   10   14 ar
  19   11   12 1
  20   11   29 1
  21   12   16 ar
  22   12   15 ar
  23   13   22 ar
  24   13   30 1
  25   14   25 1
  26   14   24 ar
  27   15   21 1
  28   15   19 ar
  29   16   17 ar
  30   16   31 1
  31   17   18 ar
  32   17   32 1
  33   18   19 ar
  34   18   33 1
  35   19   34 1
  36   20   35 1
  37   20   36 1
  38   20   37 1
  39   22   23 ar
  40   22   38 1
  41   23   24 ar
  42   23   39 1
  43   24   40 1

#	End of record

