#	Name: ASD01882526
#	Creating user name:	WinNT
#	Creation time:	15. 06. 2019 19:44

#	Modifying user name:	WinNT
#	Modification time:	15. 06. 2019 19:44

#	Program:	/corina/corina34_cracker 3.40 0067  02.08.2006

@<TRIPOS>MOLECULE
ASD01882526
  58   63    0    0    0
SMALL
NO_CHARGES


@<TRIPOS>ATOM
   1 C1            -0.0179     1.4716     0.0101 C.3     
   2 N2             0.0021    -0.0041     0.0020 N.3     
   3 C3             1.3270     0.0630     0.6486 C.3     
   4 C4             1.5110     1.4333    -0.0047 C.3     
   5 C5             2.1201     1.3824    -1.4022 C.3     
   6 N6             2.0793     2.7256    -1.9992 N.3     
   7 C7             2.8196     3.6926    -1.1791 C.3     
   8 C8             2.1497     3.8311     0.1897 C.3     
   9 C9             2.1687     2.4722     0.8995 C.3     
  10 C10            2.5639     2.7059    -3.3106 C.ar    
  11 C11            2.6093     3.8788    -4.0528 C.ar    
  12 C12            3.0889     3.8571    -5.3479 C.ar    
  13 C13            3.5242     2.6672    -5.9063 C.ar    
  14 C14            3.4799     1.4966    -5.1681 C.ar    
  15 C15            3.0060     1.5145    -3.8708 C.ar    
  16 F16            3.9925     2.6482    -7.1734 F       
  17 C17           -1.0055    -0.5493     0.9216 C.3     
  18 C18           -0.5500    -4.2850     1.2752 C.2     
  19 C19           -0.4208    -2.8983     1.4903 C.2     
  20 C20           -1.1272    -2.0362     0.7090 C.2     
  21 C21           -1.9711    -2.5384    -0.2965 C.2     
  22 C22           -2.0845    -3.8690    -0.4906 C.2     
  23 N23           -1.3829    -4.7449     0.2851 N.pl3   
  24 N24           -0.4568    -6.4141     1.2797 N.2     
  25 N25           -0.0093    -5.3489     1.8463 N.2     
  26 C26           -1.2941    -6.1019     0.3243 C.2     
  27 C27           -2.0257    -7.0689    -0.5706 C.3     
  28 C28           -1.1808    -7.3519    -1.8144 C.3     
  29 C29           -1.6990    -8.4049    -2.7959 C.3     
  30 C30           -1.7499    -6.9217    -3.1679 C.3     
  31 Cl31           0.6266    -2.2968     2.7373 Cl      
  32 H32           -0.4506     1.9054    -0.8914 H       
  33 H33           -0.4333     1.8956     0.9244 H       
  34 H34            1.2781     0.1033     1.7368 H       
  35 H35            2.0268    -0.6895     0.2848 H       
  36 H36            3.1544     1.0448    -1.3362 H       
  37 H37            1.5499     0.6910    -2.0226 H       
  38 H38            3.8447     3.3463    -1.0475 H       
  39 H39            2.8266     4.6612    -1.6788 H       
  40 H40            2.6926     4.5624     0.7885 H       
  41 H41            1.1186     4.1594     0.0590 H       
  42 H42            1.6168     2.5421     1.8368 H       
  43 H43            3.1992     2.1802     1.1015 H       
  44 H44            2.2696     4.8071    -3.6179 H       
  45 H45            3.1240     4.7689    -5.9257 H       
  46 H46            3.8196     0.5695    -5.6057 H       
  47 H47            2.9754     0.6020    -3.2940 H       
  48 H48           -0.7028    -0.3529     1.9501 H       
  49 H49           -1.9677    -0.0747     0.7291 H       
  50 H50           -2.5321    -1.8555    -0.9172 H       
  51 H51           -2.7363    -4.2435    -1.2661 H       
  52 H52           -2.2024    -7.9999    -0.0319 H       
  53 H53           -2.9799    -6.6358    -0.8704 H       
  54 H54           -0.1019    -7.2805    -1.6761 H       
  55 H55           -0.9611    -9.0261    -3.3036 H       
  56 H56           -2.6419    -8.8961    -2.5555 H       
  57 H57           -2.7263    -6.4371    -3.1722 H       
  58 H58           -1.0455    -6.5671    -3.9203 H       
@<TRIPOS>BOND
   1    1    2 1
   2    1    4 1
   3    1   32 1
   4    1   33 1
   5    2    3 1
   6    2   17 1
   7    3    4 1
   8    3   34 1
   9    3   35 1
  10    4    5 1
  11    4    9 1
  12    5    6 1
  13    5   36 1
  14    5   37 1
  15    6    7 1
  16    6   10 1
  17    7    8 1
  18    7   38 1
  19    7   39 1
  20    8    9 1
  21    8   40 1
  22    8   41 1
  23    9   42 1
  24    9   43 1
  25   10   11 ar
  26   10   15 ar
  27   11   12 ar
  28   11   44 1
  29   12   13 ar
  30   12   45 1
  31   13   14 ar
  32   13   16 1
  33   14   15 ar
  34   14   46 1
  35   15   47 1
  36   17   20 1
  37   17   48 1
  38   17   49 1
  39   18   19 1
  40   18   23 1
  41   18   25 2
  42   19   20 2
  43   19   31 1
  44   20   21 1
  45   21   22 2
  46   21   50 1
  47   22   23 1
  48   22   51 1
  49   23   26 1
  50   24   25 1
  51   24   26 2
  52   26   27 1
  53   27   28 1
  54   27   52 1
  55   27   53 1
  56   28   29 1
  57   28   30 1
  58   28   54 1
  59   29   30 1
  60   29   55 1
  61   29   56 1
  62   30   57 1
  63   30   58 1

#	End of record

