#	Name: ASD00840118
#	Creating user name:	WinNT
#	Creation time:	15. 06. 2019 18:37

#	Modifying user name:	WinNT
#	Modification time:	15. 06. 2019 18:37

#	Program:	/corina/corina34_cracker 3.40 0067  02.08.2006

@<TRIPOS>MOLECULE
ASD00840118
  82   87    0    0    0
SMALL
NO_CHARGES


@<TRIPOS>ATOM
   1 N1             0.0400     1.3329     0.1175 N.3     
   2 C2            -0.4882     1.7368    -1.1930 C.3     
   3 C3             0.4079     1.1714    -2.2975 C.3     
   4 N4             0.4588    -0.2927    -2.1819 N.3     
   5 C5             0.9870    -0.6966    -0.8714 C.3     
   6 C6             0.0909    -0.1312     0.2331 C.3     
   7 N7            -2.1736     5.0913     3.1096 N.am    
   8 C8            -2.1925     3.7956     2.7543 C.2     
   9 C9            -0.8880     3.1862     3.2220 C.3     
  10 C10           -0.1605     4.3356     3.8808 C.ar    
  11 C11            1.0656     4.4352     4.4997 C.ar    
  12 C12            1.4787     5.6484     5.0231 C.ar    
  13 C13            0.6547     6.7585     4.9214 C.ar    
  14 C14           -0.5756     6.6590     4.3011 C.ar    
  15 C15           -0.9957     5.4403     3.7723 C.ar    
  16 O16           -3.0869     3.2220     2.1693 O.2     
  17 F17            1.0565     7.9432     5.4317 F       
  18 C18           -1.9842     1.0251     3.8932 C.ar    
  19 C19           -1.1468     2.0850     4.2177 C.ar    
  20 C20           -0.5532     2.1158     5.4673 C.ar    
  21 C21           -0.8195     1.0802     6.3526 C.ar    
  22 C22           -1.6620     0.0584     5.9629 C.ar    
  23 N23           -2.2135     0.0565     4.7641 N.ar    
  24 O24           -2.5768     0.9860     2.6734 O.3     
  25 C25           -3.4265    -0.1300     2.4003 C.3     
  26 C26           -3.9998    -0.0009     0.9877 C.3     
  27 Cl27           3.0233     5.7791     5.8048 Cl      
  28 S28           -3.4034     6.1538     2.7917 S.o2    
  29 O29           -2.8243     7.4514     2.7978 O.2     
  30 O30           -4.1134     5.6248     1.6803 O.2     
  31 C31           -4.5096     6.0963     4.1620 C.ar    
  32 C32           -4.3261     6.9486     5.2347 C.ar    
  33 C33           -5.1940     6.9034     6.3097 C.ar    
  34 C34           -6.2456     6.0062     6.3118 C.ar    
  35 C35           -6.4297     5.1545     5.2387 C.ar    
  36 C36           -5.5644     5.2027     4.1617 C.ar    
  37 C37           -0.0985     2.6644     2.0491 C.2     
  38 O38            1.0739     2.9516     1.9315 O.2     
  39 N39           -0.6954     1.8788     1.1310 N.am    
  40 N40            1.4423    -2.7371    -5.4746 N.3     
  41 C41            2.1574    -3.0036    -4.2200 C.3     
  42 C42            1.3851    -2.3887    -3.0505 C.3     
  43 C43            1.2496    -0.8797    -3.2719 C.3     
  44 C44            0.5448    -0.6290    -4.6079 C.3     
  45 C45            1.3414    -1.2949    -5.7322 C.3     
  46 C46            2.0807    -3.4298    -6.6017 C.3     
  47 H47           -1.5002     1.3500    -1.3122 H       
  48 H48           -0.5042     2.8247    -1.2591 H       
  49 H49            0.0018     1.4454    -3.2712 H       
  50 H50            1.4134     1.5795    -2.1946 H       
  51 H51            1.0030    -1.7845    -0.8053 H       
  52 H52            1.9990    -0.3098    -0.7523 H       
  53 H53            0.4970    -0.4052     1.2068 H       
  54 H54           -0.9146    -0.5393     0.1302 H       
  55 H55            1.7042     3.5677     4.5770 H       
  56 H56           -1.2129     7.5276     4.2255 H       
  57 H57            0.1026     2.9269     5.7474 H       
  58 H58           -0.3721     1.0737     7.3355 H       
  59 H59           -1.8722    -0.7499     6.6477 H       
  60 H60           -2.8505    -1.0523     2.4758 H       
  61 H61           -4.2422    -0.1509     3.1230 H       
  62 H62           -4.5758     0.9214     0.9122 H       
  63 H63           -3.1841     0.0201     0.2650 H       
  64 H64           -4.6480    -0.8521     0.7794 H       
  65 H65           -3.5045     7.6495     5.2331 H       
  66 H66           -5.0502     7.5688     7.1482 H       
  67 H67           -6.9232     5.9704     7.1520 H       
  68 H68           -7.2511     4.4534     5.2404 H       
  69 H69           -5.7103     4.5398     3.3216 H       
  70 H70           -1.6471     1.7009     1.1899 H       
  71 H71            2.2433    -4.0802    -4.0725 H       
  72 H72            3.1533    -2.5633    -4.2690 H       
  73 H73            0.3939    -2.8385    -2.9924 H       
  74 H74            1.9242    -2.5733    -2.1213 H       
  75 H75            2.2395    -0.4239    -3.2900 H       
  76 H76           -0.4596    -1.0511    -4.5743 H       
  77 H77            0.4834     0.4437    -4.7913 H       
  78 H78            2.3412    -0.8626    -5.7741 H       
  79 H79            0.8346    -1.1304    -6.6831 H       
  80 H80            2.0755    -4.5042    -6.4179 H       
  81 H81            1.5311    -3.2153    -7.5183 H       
  82 H82            3.1091    -3.0839    -6.7054 H       
@<TRIPOS>BOND
   1    1    2 1
   2    1    6 1
   3    1   39 1
   4    2    3 1
   5    2   47 1
   6    2   48 1
   7    3    4 1
   8    3   49 1
   9    3   50 1
  10    4    5 1
  11    4   43 1
  12    5    6 1
  13    5   51 1
  14    5   52 1
  15    6   53 1
  16    6   54 1
  17    7    8 am
  18    7   15 1
  19    7   28 am
  20    8    9 1
  21    8   16 2
  22    9   10 1
  23    9   19 1
  24    9   37 1
  25   10   11 ar
  26   10   15 ar
  27   11   12 ar
  28   11   55 1
  29   12   13 ar
  30   12   27 1
  31   13   14 ar
  32   13   17 1
  33   14   15 ar
  34   14   56 1
  35   18   19 ar
  36   18   23 ar
  37   18   24 1
  38   19   20 ar
  39   20   21 ar
  40   20   57 1
  41   21   22 ar
  42   21   58 1
  43   22   23 ar
  44   22   59 1
  45   24   25 1
  46   25   26 1
  47   25   60 1
  48   25   61 1
  49   26   62 1
  50   26   63 1
  51   26   64 1
  52   28   29 2
  53   28   30 2
  54   28   31 1
  55   31   32 ar
  56   31   36 ar
  57   32   33 ar
  58   32   65 1
  59   33   34 ar
  60   33   66 1
  61   34   35 ar
  62   34   67 1
  63   35   36 ar
  64   35   68 1
  65   36   69 1
  66   37   38 2
  67   37   39 am
  68   39   70 1
  69   40   41 1
  70   40   45 1
  71   40   46 1
  72   41   42 1
  73   41   71 1
  74   41   72 1
  75   42   43 1
  76   42   73 1
  77   42   74 1
  78   43   44 1
  79   43   75 1
  80   44   45 1
  81   44   76 1
  82   44   77 1
  83   45   78 1
  84   45   79 1
  85   46   80 1
  86   46   81 1
  87   46   82 1

#	End of record

