#	Name: ASD01028534
#	Creating user name:	WinNT
#	Creation time:	15. 06. 2019 18:57

#	Modifying user name:	WinNT
#	Modification time:	15. 06. 2019 18:57

#	Program:	/corina/corina34_cracker 3.40 0067  02.08.2006

@<TRIPOS>MOLECULE
ASD01028534
  41   45    0    0    0
SMALL
NO_CHARGES


@<TRIPOS>ATOM
   1 N1            -0.0169     1.3921     0.0097 N.2     
   2 N2             0.0021    -0.0041     0.0020 N.pl3   
   3 C3             1.1072     2.0742     0.0026 C.2     
   4 C4             2.3534     1.4122    -0.0128 C.2     
   5 C5             2.4037     0.0541    -0.0211 C.2     
   6 C6             1.2006    -0.6771    -0.0130 C.2     
   7 N7             0.9143    -1.9688    -0.0175 N.2     
   8 N8            -0.3640    -2.1207    -0.0054 N.2     
   9 C9            -0.9586    -0.9538     0.0061 C.2     
  10 C10           -2.4463    -0.7138     0.0225 C.3     
  11 C11            1.0649     3.5569     0.0105 C.ar    
  12 C12           -2.9277    -0.6409     1.4487 C.ar    
  13 C13           -2.9536     0.5609     2.0885 C.ar    
  14 C14           -3.3456    -1.8031     2.0934 C.ar    
  15 C15           -3.7860    -1.7724     3.3809 C.ar    
  16 C16           -3.8221    -0.5518     4.0768 C.ar    
  17 C17           -3.4018     0.6299     3.4171 C.ar    
  18 N18           -4.2493    -0.4910     5.3422 N.ar    
  19 C19           -4.2846     0.6448     5.9957 C.ar    
  20 C20           -3.8810     1.8418     5.4078 C.ar    
  21 C21           -3.4388     1.8516     4.1157 C.ar    
  22 C22           -0.1604     4.2211     0.0253 C.ar    
  23 C23           -0.1950     5.6001     0.0331 C.ar    
  24 C24            0.9860     6.3250     0.0262 C.ar    
  25 C25            2.2063     5.6688     0.0114 C.ar    
  26 C26            2.2504     4.2899     0.0089 C.ar    
  27 F27            0.9474     7.6754     0.0333 F       
  28 H28            3.2685     1.9857    -0.0185 H       
  29 H29            3.3546    -0.4578    -0.0332 H       
  30 H30           -2.6685     0.2252    -0.4844 H       
  31 H31           -2.9520    -1.5320    -0.4902 H       
  32 H32           -2.6310     1.4556     1.5769 H       
  33 H33           -3.3200    -2.7434     1.5629 H       
  34 H34           -4.1068    -2.6826     3.8659 H       
  35 H35           -4.6361     0.6529     7.0168 H       
  36 H36           -3.9220     2.7618     5.9720 H       
  37 H37           -3.1218     2.7702     3.6445 H       
  38 H38           -1.0813     3.6569     0.0303 H       
  39 H39           -1.1440     6.1156     0.0442 H       
  40 H40            3.1243     6.2376     0.0057 H       
  41 H41            3.2019     3.7792    -0.0022 H       
@<TRIPOS>BOND
   1    1    2 1
   2    1    3 2
   3    2    6 1
   4    2    9 1
   5    3    4 1
   6    3   11 1
   7    4    5 2
   8    4   28 1
   9    5    6 1
  10    5   29 1
  11    6    7 2
  12    7    8 1
  13    8    9 2
  14    9   10 1
  15   10   12 1
  16   10   30 1
  17   10   31 1
  18   11   22 ar
  19   11   26 ar
  20   12   13 ar
  21   12   14 ar
  22   13   17 ar
  23   13   32 1
  24   14   15 ar
  25   14   33 1
  26   15   16 ar
  27   15   34 1
  28   16   17 ar
  29   16   18 ar
  30   17   21 ar
  31   18   19 ar
  32   19   20 ar
  33   19   35 1
  34   20   21 ar
  35   20   36 1
  36   21   37 1
  37   22   23 ar
  38   22   38 1
  39   23   24 ar
  40   23   39 1
  41   24   25 ar
  42   24   27 1
  43   25   26 ar
  44   25   40 1
  45   26   41 1

#	End of record

