#	Name: ASD02508045
#	Creating user name:	WinNT
#	Creation time:	15. 06. 2019 20:23

#	Modifying user name:	WinNT
#	Modification time:	15. 06. 2019 20:23

#	Program:	/corina/corina34_cracker 3.40 0067  02.08.2006

@<TRIPOS>MOLECULE
ASD02508045
  40   42    0    0    0
SMALL
NO_CHARGES


@<TRIPOS>ATOM
   1 C1             0.1935     1.2949    -0.9748 C.ar    
   2 C2             0.6844     0.3559    -1.8684 C.ar    
   3 C3             0.8784     1.5589     0.2110 C.ar    
   4 C4             2.0522     0.8790     0.4942 C.ar    
   5 C5             2.5400    -0.0601    -0.4026 C.ar    
   6 C6             1.8544    -0.3198    -1.5838 C.ar    
   7 N7            -0.9299     2.1255    -0.9793 N.am    
   8 C8            -0.9066     2.8431     0.1612 C.2     
   9 O9             0.1770     2.5075     0.8788 O.3     
  10 N10            3.7249    -0.7472    -0.1180 N.am    
  11 S11            4.9592     0.0231     0.6729 S.o2    
  12 C12            5.4435     1.3925    -0.3246 C.ar    
  13 C13            5.9868     1.1770    -1.5829 C.ar    
  14 C14           -1.9467     2.2026    -2.0313 C.3     
  15 O15           -1.7366     3.6698     0.4878 O.2     
  16 O16            4.3972     0.5691     1.8584 O.2     
  17 O17            6.0575    -0.8785     0.6771 O.2     
  18 C18            2.3885    -1.3411    -2.5547 C.3     
  19 C19            5.2772     2.6813     0.1434 C.ar    
  20 C20            5.6574     3.7572    -0.6396 C.ar    
  21 C21            6.2047     3.5442    -1.8922 C.ar    
  22 C22            6.3673     2.2566    -2.3662 C.ar    
  23 O23            6.1465    -0.0904    -2.0472 O.3     
  24 Cl24           5.4469     5.3762    -0.0495 Cl      
  25 C25            6.7122    -0.2372    -3.3512 C.3     
  26 H26            0.1523     0.1527    -2.7860 H       
  27 H27            2.5864     1.0802     1.4110 H       
  28 H28            3.8235    -1.6748    -0.3839 H       
  29 H29           -2.7427     1.4886    -1.8202 H       
  30 H30           -2.3612     3.2102    -2.0627 H       
  31 H31           -1.4925     1.9664    -2.9936 H       
  32 H32            1.9771    -2.3213    -2.3139 H       
  33 H33            2.0992    -1.0647    -3.5686 H       
  34 H34            3.4757    -1.3759    -2.4839 H       
  35 H35            4.8498     2.8496     1.1208 H       
  36 H36            6.5005     4.3851    -2.5020 H       
  37 H37            6.7949     2.0906    -3.3439 H       
  38 H38            6.7842    -1.2962    -3.5990 H       
  39 H39            6.0770     0.2644    -4.0814 H       
  40 H40            7.7068     0.2083    -3.3680 H       
@<TRIPOS>BOND
   1    1    2 ar
   2    1    3 ar
   3    1    7 1
   4    2    6 ar
   5    2   26 1
   6    3    4 ar
   7    3    9 1
   8    4    5 ar
   9    4   27 1
  10    5    6 ar
  11    5   10 1
  12    6   18 1
  13    7    8 am
  14    7   14 1
  15    8    9 1
  16    8   15 2
  17   10   11 am
  18   10   28 1
  19   11   12 1
  20   11   16 2
  21   11   17 2
  22   12   13 ar
  23   12   19 ar
  24   13   23 1
  25   13   22 ar
  26   14   29 1
  27   14   30 1
  28   14   31 1
  29   18   32 1
  30   18   33 1
  31   18   34 1
  32   19   20 ar
  33   19   35 1
  34   20   21 ar
  35   20   24 1
  36   21   22 ar
  37   21   36 1
  38   22   37 1
  39   23   25 1
  40   25   38 1
  41   25   39 1
  42   25   40 1

#	End of record

