#	Name: ASD01816726
#	Creating user name:	WinNT
#	Creation time:	15. 06. 2019 19:35

#	Modifying user name:	WinNT
#	Modification time:	15. 06. 2019 19:35

#	Program:	/corina/corina34_cracker 3.40 0067  02.08.2006

@<TRIPOS>MOLECULE
ASD01816726
  68   72    0    0    0
SMALL
NO_CHARGES


@<TRIPOS>ATOM
   1 C1            -0.0167     1.3960     0.0154 C.2     
   2 C2             0.0025    -0.0052    -0.0027 C.2     
   3 C3             1.1989    -0.6602    -0.0249 C.2     
   4 C4             2.3921     0.0815    -0.0293 C.2     
   5 N5             2.3439     1.4491    -0.0109 N.am    
   6 C6             1.1421     2.0927     0.0108 C.2     
   7 C7             3.6230    -0.5886    -0.0520 C.2     
   8 C8             4.7879     0.1231    -0.0564 C.2     
   9 C9             4.7340     1.5284    -0.0380 C.2     
  10 C10            3.4813     2.1731    -0.0151 C.2     
  11 C11            3.6604    -2.0950    -0.0709 C.3     
  12 O12            3.4256     3.3913     0.0010 O.2     
  13 C13            5.9710     2.3159    -0.0418 C.2     
  14 N14            7.1647     1.6963     0.0459 N.am    
  15 O15            5.9198     3.5292    -0.1241 O.2     
  16 N16            3.7771    -2.5645    -1.4580 N.3     
  17 C17            4.0538    -4.0059    -1.5042 C.3     
  18 C18            4.3126    -4.4309    -2.9514 C.3     
  19 C19            3.0834    -4.1007    -3.8027 C.3     
  20 C20            2.7879    -2.6019    -3.6987 C.3     
  21 C21            2.5734    -2.2299    -2.2298 C.3     
  22 C22            3.3547    -4.4619    -5.2404 C.ar    
  23 N23            4.5924    -4.6930    -5.6319 N.ar    
  24 C24            1.9254    -4.8656    -3.3121 C.1     
  25 N25            1.0317    -5.4559    -2.9335 N.1     
  26 C26            4.8771    -5.0121    -6.8795 C.ar    
  27 C27            3.8778    -5.1157    -7.8282 C.ar    
  28 C28            2.5635    -4.8798    -7.4539 C.ar    
  29 C29            2.3025    -4.5527    -6.1322 C.ar    
  30 C30            8.4025     2.4710    -0.0711 C.3     
  31 C31            9.5332     1.5590    -0.5570 C.3     
  32 C32           10.8378     2.3606    -0.6009 C.3     
  33 C33           11.1168     2.9427     0.7873 C.3     
  34 O34           10.0133     3.7555     1.1921 O.3     
  35 C35            8.7756     3.0489     1.2966 C.3     
  36 C36            1.4450    -4.9821    -8.4586 C.3     
  37 O37            9.2266     1.0730    -1.8654 O.3     
  38 H38           -0.9603     1.9212     0.0285 H       
  39 H39           -0.9228    -0.5622     0.0013 H       
  40 H40            1.2286    -1.7397    -0.0386 H       
  41 H41            1.1154     3.1723     0.0251 H       
  42 H42            5.7397    -0.3869    -0.0735 H       
  43 H43            4.5179    -2.4445     0.5042 H       
  44 H44            2.7435    -2.4869     0.3694 H       
  45 H45            7.2041     0.7373     0.1865 H       
  46 H46            4.9326    -4.2266    -0.8983 H       
  47 H47            3.1963    -4.5531    -1.1128 H       
  48 H48            5.1785    -3.8942    -3.3391 H       
  49 H49            4.5026    -5.5036    -2.9873 H       
  50 H50            3.6299    -2.0364    -4.0981 H       
  51 H51            1.8886    -2.3679    -4.2684 H       
  52 H52            1.7228    -2.7855    -1.8350 H       
  53 H53            2.3769    -1.1607    -2.1509 H       
  54 H54            5.9031    -5.1943    -7.1630 H       
  55 H55            4.1173    -5.3766    -8.8484 H       
  56 H56            1.2908    -4.3628    -5.8054 H       
  57 H57            8.2580     3.2832    -0.7836 H       
  58 H58            9.6443     0.7190     0.1286 H       
  59 H59           11.6584     1.7052    -0.8927 H       
  60 H60           10.7432     3.1711    -1.3235 H       
  61 H61           11.2515     2.1306     1.5017 H       
  62 H62           12.0216     3.5496     0.7518 H       
  63 H63            7.9938     3.7323     1.6280 H       
  64 H64            8.8796     2.2381     2.0177 H       
  65 H65            1.0616    -6.0023    -8.4729 H       
  66 H66            0.6440    -4.2967    -8.1816 H       
  67 H67            1.8205    -4.7211    -9.4481 H       
  68 H68            9.9014     0.4878    -2.2358 H       
@<TRIPOS>BOND
   1    1    2 1
   2    1    6 2
   3    1   38 1
   4    2    3 2
   5    2   39 1
   6    3    4 1
   7    3   40 1
   8    4    5 1
   9    4    7 2
  10    5    6 1
  11    5   10 am
  12    6   41 1
  13    7    8 1
  14    7   11 1
  15    8    9 2
  16    8   42 1
  17    9   10 1
  18    9   13 1
  19   10   12 2
  20   11   16 1
  21   11   43 1
  22   11   44 1
  23   13   15 2
  24   13   14 am
  25   14   30 1
  26   14   45 1
  27   16   17 1
  28   16   21 1
  29   17   18 1
  30   17   46 1
  31   17   47 1
  32   18   19 1
  33   18   48 1
  34   18   49 1
  35   19   20 1
  36   19   22 1
  37   19   24 1
  38   20   21 1
  39   20   50 1
  40   20   51 1
  41   21   52 1
  42   21   53 1
  43   22   23 ar
  44   22   29 ar
  45   23   26 ar
  46   24   25 3
  47   26   27 ar
  48   26   54 1
  49   27   28 ar
  50   27   55 1
  51   28   29 ar
  52   28   36 1
  53   29   56 1
  54   30   31 1
  55   30   35 1
  56   30   57 1
  57   31   32 1
  58   31   37 1
  59   31   58 1
  60   32   33 1
  61   32   59 1
  62   32   60 1
  63   33   34 1
  64   33   61 1
  65   33   62 1
  66   34   35 1
  67   35   63 1
  68   35   64 1
  69   36   65 1
  70   36   66 1
  71   36   67 1
  72   37   68 1

#	End of record

