#	Name: ASD03330224
#	Creating user name:	WinNT
#	Creation time:	15. 06. 2019 20:36

#	Modifying user name:	WinNT
#	Modification time:	15. 06. 2019 20:36

#	Program:	/corina/corina34_cracker 3.40 0067  02.08.2006

@<TRIPOS>MOLECULE
ASD03330224
  51   53    0    0    0
SMALL
NO_CHARGES


@<TRIPOS>ATOM
   1 C1            -0.6672     0.5738     0.2362 C.3     
   2 N2            -0.5953    -0.8812     0.0432 N.3     
   3 C3            -0.0283    -1.2169    -1.2755 C.3     
   4 C4             1.2470    -0.4326    -1.4463 C.2     
   5 N5             1.5873     0.6369    -0.6676 N.pl3   
   6 C6             0.7449     1.1452     0.4186 C.3     
   7 C7             2.2487    -0.6111    -2.3412 C.2     
   8 N8             3.1858     0.3377    -2.1046 N.2     
   9 C9             2.7934     1.0891    -1.0996 C.2     
  10 C10            3.5393     2.2344    -0.5347 C.2     
  11 C11            3.0592     3.1973     0.2980 C.2     
  12 C12            2.3081    -1.6506    -3.3834 C.2     
  13 O13            1.3993    -2.4510    -3.4966 O.2     
  14 O14            5.7229    -2.2024    -5.3365 O.2     
  15 C15            4.8672    -3.0183    -5.6069 C.2     
  16 C16            3.4286    -2.7485    -5.2479 C.3     
  17 N17            3.3695    -1.7148    -4.2115 N.am    
  18 C18            2.6743    -2.2693    -6.4898 C.3     
  19 C19            2.7348    -3.3495    -7.5716 C.3     
  20 C20            1.2141    -1.9941    -6.1250 C.3     
  21 C21            3.3196    -0.9852    -7.0146 C.3     
  22 N22            5.2028    -4.1661    -6.2285 N.am    
  23 C23            6.5861    -4.3905    -6.6555 C.3     
  24 O24            4.0541     4.0500     0.5776 O.3     
  25 C25            5.1848     3.6837    -0.0449 C.2     
  26 C26            4.9538     2.5649    -0.7510 C.2     
  27 H27           -1.1336     1.0323    -0.6358 H       
  28 H28           -1.2637     0.7928     1.1218 H       
  29 H29           -0.0696    -1.3188     0.7849 H       
  30 H30            0.1864    -2.2845    -1.3234 H       
  31 H31           -0.7350    -0.9468    -2.0601 H       
  32 H32            0.7094     2.2338     0.3780 H       
  33 H33            1.1500     0.8253     1.3787 H       
  34 H34            2.0475     3.2632     0.6702 H       
  35 H35            2.9695    -3.6639    -4.8746 H       
  36 H36            4.0943    -1.0765    -4.1213 H       
  37 H37            2.2610    -4.2595    -7.2034 H       
  38 H38            2.2108    -3.0018    -8.4619 H       
  39 H39            3.7756    -3.5568    -7.8203 H       
  40 H40            1.1711    -1.2245    -5.3542 H       
  41 H41            0.6767    -1.6527    -7.0097 H       
  42 H42            0.7544    -2.9089    -5.7511 H       
  43 H43            4.3599    -1.1813    -7.2745 H       
  44 H44            2.7822    -0.6438    -7.8993 H       
  45 H45            3.2766    -0.2156    -6.2439 H       
  46 H46            4.5284    -4.8436    -6.3930 H       
  47 H47            6.6644    -5.3658    -7.1357 H       
  48 H48            6.8790    -3.6134    -7.3615 H       
  49 H49            7.2441    -4.3591    -5.7871 H       
  50 H50            6.1300     4.2026     0.0157 H       
  51 H51            5.6624     2.0222    -1.3591 H       
@<TRIPOS>BOND
   1    1    2 1
   2    1    6 1
   3    1   27 1
   4    1   28 1
   5    2    3 1
   6    2   29 1
   7    3    4 1
   8    3   30 1
   9    3   31 1
  10    4    5 1
  11    4    7 2
  12    5    6 1
  13    5    9 1
  14    6   32 1
  15    6   33 1
  16    7    8 1
  17    7   12 1
  18    8    9 2
  19    9   10 1
  20   10   11 2
  21   10   26 1
  22   11   24 1
  23   11   34 1
  24   12   13 2
  25   12   17 am
  26   14   15 2
  27   15   22 am
  28   15   16 1
  29   16   17 1
  30   16   18 1
  31   16   35 1
  32   17   36 1
  33   18   19 1
  34   18   20 1
  35   18   21 1
  36   19   37 1
  37   19   38 1
  38   19   39 1
  39   20   40 1
  40   20   41 1
  41   20   42 1
  42   21   43 1
  43   21   44 1
  44   21   45 1
  45   22   23 1
  46   22   46 1
  47   23   47 1
  48   23   48 1
  49   23   49 1
  50   24   25 1
  51   25   26 2
  52   25   50 1
  53   26   51 1

#	End of record

