#	Name: ASD03090812
#	Creating user name:	WinNT
#	Creation time:	15. 06. 2019 20:29

#	Modifying user name:	WinNT
#	Modification time:	15. 06. 2019 20:29

#	Program:	/corina/corina34_cracker 3.40 0067  02.08.2006

@<TRIPOS>MOLECULE
ASD03090812
  45   47    0    0    0
SMALL
NO_CHARGES


@<TRIPOS>ATOM
   1 N1            -0.1180     1.0762     0.3213 N.pl3   
   2 N2            -0.0111    -0.2858    -0.0032 N.2     
   3 C3             1.1132     1.4722     0.7142 C.2     
   4 N4             1.9181     0.4315     0.6372 N.2     
   5 C5             1.2392    -0.6314     0.2037 C.2     
   6 C6            -1.3234     1.9052     0.2435 C.3     
   7 C7            -2.0641     1.8551     1.5813 C.3     
   8 C8            -3.2534     2.8169     1.5421 C.3     
   9 O9            -2.5338     0.5261     1.8163 O.3     
  10 C10           -3.9196     2.8605     2.9187 C.3     
  11 N11            1.7716    -1.9062     0.0027 N.pl3   
  12 C12            3.1461    -2.1234     0.1581 C.ar    
  13 C13            3.6589    -3.4142     0.0913 C.ar    
  14 C14            3.9993    -1.0500     0.3733 C.ar    
  15 C15            5.3561    -1.2652     0.5257 C.ar    
  16 C16            5.8664    -2.5500     0.4642 C.ar    
  17 C17            5.0183    -3.6253     0.2449 C.ar    
  18 C18            1.4909     2.8345     1.1526 C.ar    
  19 C19            2.8314     3.2346     1.1810 C.ar    
  20 C20            3.1396     4.5137     1.5959 C.ar    
  21 N21            2.1914     5.3542     1.9628 N.ar    
  22 C22            0.9148     5.0179     1.9512 C.ar    
  23 C23            0.5174     3.7591     1.5443 C.ar    
  24 C24            4.5796     4.9568     1.6310 C.3     
  25 F25            5.5183    -4.8790     0.1856 F       
  26 Cl26          -0.2805     6.1750     2.4473 Cl      
  27 F27            2.8317    -4.4607    -0.1227 F       
  28 F28            7.1932    -2.7567     0.6131 F       
  29 H29           -1.0426     2.9348     0.0219 H       
  30 H30           -1.9734     1.5280    -0.5460 H       
  31 H31           -1.3863     2.1480     2.3831 H       
  32 H32           -2.9052     3.8147     1.2752 H       
  33 H33           -3.9744     2.4731     0.8003 H       
  34 H34           -3.1431     0.1990     1.1404 H       
  35 H35           -4.7669     3.5457     2.8908 H       
  36 H36           -4.2679     1.8627     3.1857 H       
  37 H37           -3.1987     3.2042     3.6605 H       
  38 H38            1.1893    -2.6415    -0.2447 H       
  39 H39            3.6031    -0.0465     0.4214 H       
  40 H40            6.0191    -0.4292     0.6928 H       
  41 H41            3.6133     2.5519     0.8828 H       
  42 H42           -0.5286     3.4902     1.5367 H       
  43 H43            4.8478     5.3969     0.6706 H       
  44 H44            4.7129     5.6971     2.4198 H       
  45 H45            5.2197     4.0967     1.8280 H       
@<TRIPOS>BOND
   1    1    2 1
   2    1    3 1
   3    1    6 1
   4    2    5 2
   5    3    4 2
   6    3   18 1
   7    4    5 1
   8    5   11 1
   9    6    7 1
  10    6   29 1
  11    6   30 1
  12    7    8 1
  13    7    9 1
  14    7   31 1
  15    8   10 1
  16    8   32 1
  17    8   33 1
  18    9   34 1
  19   10   35 1
  20   10   36 1
  21   10   37 1
  22   11   12 1
  23   11   38 1
  24   12   13 ar
  25   12   14 ar
  26   13   27 1
  27   13   17 ar
  28   14   15 ar
  29   14   39 1
  30   15   16 ar
  31   15   40 1
  32   16   17 ar
  33   16   28 1
  34   17   25 1
  35   18   19 ar
  36   18   23 ar
  37   19   20 ar
  38   19   41 1
  39   20   21 ar
  40   20   24 1
  41   21   22 ar
  42   22   23 ar
  43   22   26 1
  44   23   42 1
  45   24   43 1
  46   24   44 1
  47   24   45 1

#	End of record

