#	Name: ASD01001207
#	Creating user name:	WinNT
#	Creation time:	15. 06. 2019 18:55

#	Modifying user name:	WinNT
#	Modification time:	15. 06. 2019 18:55

#	Program:	/corina/corina34_cracker 3.40 0067  02.08.2006

@<TRIPOS>MOLECULE
ASD01001207
  60   63    0    0    0
SMALL
NO_CHARGES


@<TRIPOS>ATOM
   1 C1            -0.0184     1.5043     0.0103 C.3     
   2 C2             0.0021    -0.0041     0.0020 C.ar    
   3 C3            -0.7627     2.0222    -1.2180 C.3     
   4 C4            -0.1812    -0.7221    -1.1695 C.ar    
   5 C5             0.2104    -0.6770     1.1933 C.ar    
   6 C6            -0.1704     1.3778    -2.4745 C.3     
   7 C7            -0.6593     3.5425    -1.3061 C.3     
   8 C8            -0.1493    -2.1123    -1.1432 C.ar    
   9 N9            -0.4069    -0.0706    -2.3871 N.pl3   
  10 C10           -0.8475     1.9330    -3.7010 C.2     
  11 C11            0.8142     3.9589    -1.2772 C.3     
  12 C12            0.0609    -2.7763     0.0488 C.ar    
  13 C13            0.2399    -2.0584     1.2168 C.ar    
  14 C14            1.4593     3.4012    -0.0046 C.3     
  15 C15            2.9412     3.7804     0.0262 C.3     
  16 N16            3.5584     3.2449     1.2470 N.3     
  17 O17            1.3301     1.9793    -0.0000 O.3     
  18 C18           -0.1311     2.6641    -4.5830 C.2     
  19 C19           -0.7130     3.2333    -5.7892 C.2     
  20 C20           -2.0022     3.0601    -6.0917 C.2     
  21 C21           -2.8693     2.2519    -5.1519 C.3     
  22 C22           -2.2157     1.6772    -3.9136 C.2     
  23 C23            4.9848     3.5903     1.3109 C.3     
  24 S24           -3.1195     0.7491    -2.7943 S.2     
  25 C25            0.4674    -2.7837     2.5180 C.3     
  26 C26            0.4544    -4.2933     2.2694 C.3     
  27 C27            1.8219    -2.3743     3.1000 C.3     
  28 C28           -0.6430    -2.4199     3.5056 C.3     
  29 H29           -0.5200     1.8556     0.9121 H       
  30 H30           -1.8125     1.7376    -1.1475 H       
  31 H31            0.3508    -0.1203     2.1081 H       
  32 H32            0.9005     1.5752    -2.5213 H       
  33 H33           -1.1150     3.8841    -2.2354 H       
  34 H34           -1.1801     3.9914    -0.4603 H       
  35 H35           -0.2894    -2.6727    -2.0558 H       
  36 H36           -0.7150    -0.5669    -3.1615 H       
  37 H37            1.3249     3.5566    -2.1521 H       
  38 H38            0.8867     5.0465    -1.2771 H       
  39 H39            0.0852    -3.8559     0.0690 H       
  40 H40            0.9585     3.8166     0.8700 H       
  41 H41            3.4415     3.3622    -0.8473 H       
  42 H42            3.0388     4.8659     0.0158 H       
  43 H43            3.0712     3.5671     2.0698 H       
  44 H44            0.9169     2.8334    -4.3844 H       
  45 H45           -0.0878     3.8094    -6.4552 H       
  46 H46           -2.4183     3.4898    -6.9910 H       
  47 H47           -3.6960     2.8863    -4.8323 H       
  48 H48           -3.2914     1.4218    -5.7185 H       
  49 H49            5.4170     3.1817     2.2243 H       
  50 H50            5.4992     3.1708     0.4463 H       
  51 H51            5.0965     4.6745     1.3094 H       
  52 H52            1.2455    -4.5525     1.5658 H       
  53 H53            0.6190    -4.8179     3.2106 H       
  54 H54           -0.5105    -4.5850     1.8548 H       
  55 H55            1.8311    -1.2988     3.2771 H       
  56 H56            1.9865    -2.8989     4.0412 H       
  57 H57            2.6130    -2.6335     2.3964 H       
  58 H58           -1.6080    -2.7115     3.0910 H       
  59 H59           -0.4784    -2.9445     4.4468 H       
  60 H60           -0.6338    -1.3444     3.6827 H       
@<TRIPOS>BOND
   1    1    2 1
   2    1   17 1
   3    1    3 1
   4    1   29 1
   5    2    4 ar
   6    2    5 ar
   7    3    7 1
   8    3    6 1
   9    3   30 1
  10    4    8 ar
  11    4    9 1
  12    5   13 ar
  13    5   31 1
  14    6    9 1
  15    6   10 1
  16    6   32 1
  17    7   11 1
  18    7   33 1
  19    7   34 1
  20    8   12 ar
  21    8   35 1
  22    9   36 1
  23   10   18 2
  24   10   22 1
  25   11   14 1
  26   11   37 1
  27   11   38 1
  28   12   13 ar
  29   12   39 1
  30   13   25 1
  31   14   15 1
  32   14   17 1
  33   14   40 1
  34   15   16 1
  35   15   41 1
  36   15   42 1
  37   16   23 1
  38   16   43 1
  39   18   19 1
  40   18   44 1
  41   19   20 2
  42   19   45 1
  43   20   21 1
  44   20   46 1
  45   21   22 1
  46   21   47 1
  47   21   48 1
  48   22   24 2
  49   23   49 1
  50   23   50 1
  51   23   51 1
  52   25   26 1
  53   25   27 1
  54   25   28 1
  55   26   52 1
  56   26   53 1
  57   26   54 1
  58   27   55 1
  59   27   56 1
  60   27   57 1
  61   28   58 1
  62   28   59 1
  63   28   60 1

#	End of record

