#	Name: ASD05730052
#	Creating user name:	WinNT
#	Creation time:	15. 06. 2019 21:02

#	Modifying user name:	WinNT
#	Modification time:	15. 06. 2019 21:02

#	Program:	/corina/corina34_cracker 3.40 0067  02.08.2006

@<TRIPOS>MOLECULE
ASD05730052
  67   71    0    0    0
SMALL
NO_CHARGES


@<TRIPOS>ATOM
   1 N1            -0.0621     1.3961    -0.0107 N.3     
   2 C2            -0.0318    -0.0046    -0.0135 C.ar    
   3 C3             1.0183    -0.6748    -0.6247 C.ar    
   4 C4             1.0487    -2.0561    -0.6273 C.ar    
   5 C5             0.0288    -2.7747    -0.0184 C.ar    
   6 C6            -1.0231    -2.1054     0.5939 C.ar    
   7 C7            -1.0514    -0.7237     0.6014 C.ar    
   8 N8             0.0604    -4.1749    -0.0220 N.pl3   
   9 C9            -0.4245    -4.8794     1.0626 C.ar    
  10 N10           -0.4874    -6.2002     0.9889 N.ar    
  11 C11           -0.9479    -6.9118     2.0115 C.ar    
  12 C12           -1.3680    -6.2326     3.1757 C.ar    
  13 C13           -1.2814    -4.8325     3.2041 C.ar    
  14 N14           -0.8058    -4.2074     2.1435 N.ar    
  15 N15           -1.0170    -8.2804     1.9437 N.am    
  16 C16           -1.4853    -8.9971     2.9835 C.2     
  17 C17           -1.9295    -8.3237     4.2056 C.2     
  18 C18           -1.8630    -6.9583     4.2830 C.2     
  19 C19           -0.5775    -8.9693     0.7277 C.3     
  20 O20           -1.5400   -10.2116     2.9067 O.2     
  21 C21           -2.4449    -9.1130     5.3488 C.ar    
  22 C22           -3.7205    -9.6733     5.2941 C.ar    
  23 C23            1.1204     1.9471     0.6660 C.3     
  24 C24           -1.6537    -9.3032     6.4816 C.ar    
  25 C25           -2.1391   -10.0390     7.5429 C.ar    
  26 C26           -3.4078   -10.5882     7.4849 C.ar    
  27 C27           -4.1951   -10.4074     6.3620 C.ar    
  28 C28           -0.2713    -8.7066     6.5459 C.3     
  29 S29           -4.0202   -11.5276     8.8439 S.o2    
  30 C30           -4.8429   -10.3069     9.9040 C.3     
  31 O31           -4.9738   -12.4056     8.2616 O.2     
  32 O32           -2.8518   -12.0309     9.4770 O.2     
  33 C33            1.0896     3.4747     0.5781 C.3     
  34 N34           -0.1472     3.9735     1.1956 N.3     
  35 C35           -1.3296     3.4226     0.5189 C.3     
  36 C36           -1.2988     1.8949     0.6068 C.3     
  37 F37           -2.0739    -0.0719     1.1971 F       
  38 C38            0.9114    -9.3030     0.8406 C.3     
  39 F39            1.1208   -10.1321     1.9478 F       
  40 F40            1.3312    -9.9608    -0.3206 F       
  41 F41            1.6436    -8.1214     0.9977 F       
  42 H42            1.8119    -0.1165    -1.0989 H       
  43 H43            1.8661    -2.5770    -1.1035 H       
  44 H44           -1.8166    -2.6645     1.0673 H       
  45 H45            0.4228    -4.6500    -0.7861 H       
  46 H46           -1.5935    -4.2783     4.0769 H       
  47 H47           -2.1859    -6.4434     5.1758 H       
  48 H48           -1.1480    -9.8899     0.6053 H       
  49 H49           -0.7406    -8.3233    -0.1350 H       
  50 H50           -4.3361    -9.5328     4.4179 H       
  51 H51            1.1151     1.6429     1.7127 H       
  52 H52            2.0230     1.5731     0.1829 H       
  53 H53           -1.5274   -10.1870     8.4206 H       
  54 H54           -5.1847   -10.8381     6.3227 H       
  55 H55           -0.3267    -7.7069     6.9767 H       
  56 H56            0.3670    -9.3350     7.1671 H       
  57 H57            0.1456    -8.6466     5.5406 H       
  58 H58           -5.6467    -9.8252     9.3472 H       
  59 H59           -5.2565   -10.8064    10.7800 H       
  60 H60           -4.1199    -9.5556    10.2216 H       
  61 H61            1.9506     3.8867     1.1044 H       
  62 H62            1.1223     3.7795    -0.4679 H       
  63 H63           -0.1669     3.7674     2.1831 H       
  64 H64           -2.2323     3.7965     1.0021 H       
  65 H65           -1.3243     3.7267    -0.5278 H       
  66 H66           -2.1599     1.4829     0.0806 H       
  67 H67           -1.3316     1.5901     1.6529 H       
@<TRIPOS>BOND
   1    1    2 1
   2    1   23 1
   3    1   36 1
   4    2    3 ar
   5    2    7 ar
   6    3    4 ar
   7    3   42 1
   8    4    5 ar
   9    4   43 1
  10    5    6 ar
  11    5    8 1
  12    6    7 ar
  13    6   44 1
  14    7   37 1
  15    8    9 1
  16    8   45 1
  17    9   10 ar
  18    9   14 ar
  19   10   11 ar
  20   11   12 ar
  21   11   15 1
  22   12   13 ar
  23   12   18 1
  24   13   14 ar
  25   13   46 1
  26   15   16 am
  27   15   19 1
  28   16   17 1
  29   16   20 2
  30   17   18 2
  31   17   21 1
  32   18   47 1
  33   19   38 1
  34   19   48 1
  35   19   49 1
  36   21   22 ar
  37   21   24 ar
  38   22   27 ar
  39   22   50 1
  40   23   33 1
  41   23   51 1
  42   23   52 1
  43   24   25 ar
  44   24   28 1
  45   25   26 ar
  46   25   53 1
  47   26   27 ar
  48   26   29 1
  49   27   54 1
  50   28   55 1
  51   28   56 1
  52   28   57 1
  53   29   30 1
  54   29   31 2
  55   29   32 2
  56   30   58 1
  57   30   59 1
  58   30   60 1
  59   33   34 1
  60   33   61 1
  61   33   62 1
  62   34   35 1
  63   34   63 1
  64   35   36 1
  65   35   64 1
  66   35   65 1
  67   36   66 1
  68   36   67 1
  69   38   39 1
  70   38   40 1
  71   38   41 1

#	End of record

