#	Name: ASD03540119
#	Creating user name:	WinNT
#	Creation time:	15. 06. 2019 20:42

#	Modifying user name:	WinNT
#	Modification time:	15. 06. 2019 20:42

#	Program:	/corina/corina34_cracker 3.40 0067  02.08.2006

@<TRIPOS>MOLECULE
ASD03540119
  53   55    0    0    0
SMALL
NO_CHARGES


@<TRIPOS>ATOM
   1 C1            -0.0179     1.4722     0.0101 C.2     
   2 C2             0.0021    -0.0041     0.0020 C.ar    
   3 C3             1.2180    -0.6841    -0.0132 C.ar    
   4 C4             1.2312    -2.0766    -0.0204 C.ar    
   5 C5             2.5146    -2.8050    -0.0361 C.2     
   6 C6             0.0191    -2.7850    -0.0122 C.ar    
   7 C7            -1.1873    -2.0967     0.0031 C.ar    
   8 C8            -1.2000    -0.7201     0.0155 C.ar    
   9 O9             1.0266     2.0944     0.0035 O.2     
  10 N10           -1.1942     2.1301     0.0193 N.am    
  11 O11            2.5235    -4.0208    -0.0423 O.2     
  12 N12            3.6767    -2.1225    -0.0435 N.am    
  13 O13            0.0261    -4.1398    -0.0195 O.3     
  14 C14           -1.2437    -4.7952    -0.0104 C.3     
  15 C15           -1.2140     3.5950     0.0273 C.3     
  16 C16           -2.6633     4.0853     0.0369 C.3     
  17 O17           -3.2912     3.6920     1.2588 O.3     
  18 C18           -4.6554     4.1028     1.3698 C.3     
  19 C19           -5.2229     3.6302     2.7097 C.3     
  20 C20            4.9508    -2.8455    -0.0590 C.3     
  21 O21            9.1945     0.8334     0.1807 O.3     
  22 C22            9.5664     0.5922     1.5506 C.3     
  23 O23            8.3594     0.0828     2.1481 O.3     
  24 C24            7.6675    -0.5042     1.1283 C.ar    
  25 C25            8.1811    -0.0426    -0.0816 C.ar    
  26 C26            6.6211    -1.4116     1.1310 C.ar    
  27 C27            6.0889    -1.8578    -0.0647 C.ar    
  28 C28            6.5988    -1.4001    -1.2650 C.ar    
  29 C29            7.6431    -0.4938    -1.2754 C.ar    
  30 H30            2.1469    -0.1333    -0.0199 H       
  31 H31           -2.1187    -2.6434     0.0090 H       
  32 H32           -2.1413    -0.1909     0.0315 H       
  33 H33           -2.0275     1.6338     0.0205 H       
  34 H34            3.6696    -1.1525    -0.0385 H       
  35 H35           -1.0953    -5.8750    -0.0177 H       
  36 H36           -1.7933    -4.5100     0.8866 H       
  37 H37           -1.8110    -4.5004    -0.8932 H       
  38 H38           -0.7010     3.9604     0.9169 H       
  39 H39           -0.7094     3.9701    -0.8630 H       
  40 H40           -2.6798     5.1720    -0.0467 H       
  41 H41           -3.2004     3.6480    -0.8048 H       
  42 H42           -4.7132     5.1898     1.3138 H       
  43 H43           -5.2338     3.6659     0.5558 H       
  44 H44           -4.6445     4.0671     3.5237 H       
  45 H45           -6.2635     3.9435     2.7943 H       
  46 H46           -5.1652     2.5432     2.7656 H       
  47 H47            5.0214    -3.4762     0.8271 H       
  48 H48            5.0048    -3.4672    -0.9527 H       
  49 H49           10.3636    -0.1491     1.6063 H       
  50 H50            9.8707     1.5205     2.0341 H       
  51 H51            6.2212    -1.7715     2.0675 H       
  52 H52            6.1804    -1.7509    -2.1969 H       
  53 H53            8.0390    -0.1373    -2.2148 H       
@<TRIPOS>BOND
   1    1    2 1
   2    1    9 2
   3    1   10 am
   4    2    3 ar
   5    2    8 ar
   6    3    4 ar
   7    3   30 1
   8    4    5 1
   9    4    6 ar
  10    5   11 2
  11    5   12 am
  12    6    7 ar
  13    6   13 1
  14    7    8 ar
  15    7   31 1
  16    8   32 1
  17   10   15 1
  18   10   33 1
  19   12   20 1
  20   12   34 1
  21   13   14 1
  22   14   35 1
  23   14   36 1
  24   14   37 1
  25   15   16 1
  26   15   38 1
  27   15   39 1
  28   16   17 1
  29   16   40 1
  30   16   41 1
  31   17   18 1
  32   18   19 1
  33   18   42 1
  34   18   43 1
  35   19   44 1
  36   19   45 1
  37   19   46 1
  38   20   27 1
  39   20   47 1
  40   20   48 1
  41   21   22 1
  42   21   25 1
  43   22   23 1
  44   22   49 1
  45   22   50 1
  46   23   24 1
  47   24   25 ar
  48   24   26 ar
  49   25   29 ar
  50   26   27 ar
  51   26   51 1
  52   27   28 ar
  53   28   29 ar
  54   28   52 1
  55   29   53 1

#	End of record

