#	Name: ASD00170356
#	Creating user name:	WinNT
#	Creation time:	15. 06. 2019 18:32

#	Modifying user name:	WinNT
#	Modification time:	15. 06. 2019 18:32

#	Program:	/corina/corina34_cracker 3.40 0067  02.08.2006

@<TRIPOS>MOLECULE
ASD00170356
  39   41    0    0    0
SMALL
NO_CHARGES


@<TRIPOS>ATOM
   1 C1             4.7508     1.4228     3.4953 C.ar    
   2 C2             4.9746     0.0576     3.4266 C.ar    
   3 C3             4.7704    -0.6244     2.2384 C.ar    
   4 C4             4.3426     0.0531     1.1161 C.ar    
   5 C5             4.1153     1.4291     1.1792 C.ar    
   6 C6             4.3230     2.1111     2.3796 C.ar    
   7 Cl7            5.5138    -0.8021     4.8351 Cl      
   8 C8             2.2670     4.3148     0.1010 C.2     
   9 C9             3.5335     3.6186     0.0143 C.2     
  10 C10            3.6569     2.1616    -0.0209 C.2     
  11 O11            3.3822     1.5517    -1.0385 O.2     
  12 C12            2.3962     5.6323     0.1185 C.2     
  13 S13            4.0855     6.0974     0.0292 S.3     
  14 C14            4.6081     4.4762    -0.0319 C.2     
  15 N15            5.9271     4.0788    -0.1160 N.pl3   
  16 C16            1.2462     6.6025     0.2032 C.3     
  17 C17            0.9401     6.9037     1.6717 C.3     
  18 C18           -0.2099     7.8739     1.7564 C.ar    
  19 C19           -1.5079     7.4031     1.8224 C.ar    
  20 C20           -2.5628     8.2931     1.9000 C.ar    
  21 C21           -2.3196     9.6539     1.9121 C.ar    
  22 C22           -1.0215    10.1246     1.8470 C.ar    
  23 C23            0.0336     9.2345     1.7738 C.ar    
  24 H24            4.9075     1.9485     4.4256 H       
  25 H25            4.9469    -1.6888     2.1907 H       
  26 H26            4.1840    -0.4796     0.1901 H       
  27 H27            4.1484     3.1754     2.4344 H       
  28 H28            1.3129     3.8104     0.1426 H       
  29 H29            6.6330     4.7435    -0.1447 H       
  30 H30            6.1482     3.1349    -0.1463 H       
  31 H31            1.5122     7.5269    -0.3095 H       
  32 H32            0.3665     6.1654    -0.2691 H       
  33 H33            0.6741     5.9793     2.1843 H       
  34 H34            1.8198     7.3408     2.1440 H       
  35 H35           -1.6979     6.3400     1.8129 H       
  36 H36           -3.5770     7.9253     1.9509 H       
  37 H37           -3.1438    10.3492     1.9721 H       
  38 H38           -0.8316    11.1877     1.8561 H       
  39 H39            1.0480     9.6022     1.7267 H       
@<TRIPOS>BOND
   1    1    2 ar
   2    1    6 ar
   3    1   24 1
   4    2    3 ar
   5    2    7 1
   6    3    4 ar
   7    3   25 1
   8    4    5 ar
   9    4   26 1
  10    5    6 ar
  11    5   10 1
  12    6   27 1
  13    8    9 1
  14    8   12 2
  15    8   28 1
  16    9   10 1
  17    9   14 2
  18   10   11 2
  19   12   13 1
  20   12   16 1
  21   13   14 1
  22   14   15 1
  23   15   29 1
  24   15   30 1
  25   16   17 1
  26   16   31 1
  27   16   32 1
  28   17   18 1
  29   17   33 1
  30   17   34 1
  31   18   19 ar
  32   18   23 ar
  33   19   20 ar
  34   19   35 1
  35   20   21 ar
  36   20   36 1
  37   21   22 ar
  38   21   37 1
  39   22   23 ar
  40   22   38 1
  41   23   39 1

#	End of record

