#	Name: ASD01901622
#	Creating user name:	WinNT
#	Creation time:	15. 06. 2019 19:54

#	Modifying user name:	WinNT
#	Modification time:	15. 06. 2019 19:54

#	Program:	/corina/corina34_cracker 3.40 0067  02.08.2006

@<TRIPOS>MOLECULE
ASD01901622
  39   43    0    0    0
SMALL
NO_CHARGES


@<TRIPOS>ATOM
   1 C1             0.3948     3.9686     0.6518 C.ar    
   2 C2             0.8280     4.9870     1.5222 C.ar    
   3 C3             2.1942     5.2394     1.6420 C.ar    
   4 C4             3.0680     4.4733     0.8959 C.ar    
   5 C5             2.5704     3.4847     0.0569 C.ar    
   6 N6             1.2802     3.2594    -0.0441 N.ar    
   7 N7            -1.4238     4.8760     1.5943 N.2     
   8 N8            -0.2927     5.5323     2.0906 N.pl3   
   9 C9            -1.0672     3.9531     0.7410 C.2     
  10 N10           -1.9266     3.0975     0.0448 N.pl3   
  11 N11           -6.0269     5.7748     0.6642 N.pl3   
  12 N12           -7.3541     5.3286     0.6694 N.2     
  13 C13           -7.3869     4.0418     0.4792 C.2     
  14 C14           -6.0591     3.5703     0.3371 C.ar    
  15 C15           -5.5042     2.3021     0.1176 C.ar    
  16 C16           -4.1527     2.1581     0.0242 C.ar    
  17 C17           -3.3095     3.2649     0.1437 C.ar    
  18 C18           -3.8353     4.5258     0.3598 C.ar    
  19 C19           -5.2134     4.6897     0.4583 C.ar    
  20 C20           -5.5846     7.1601     0.8414 C.3     
  21 C21           -8.6313     3.1938     0.4205 C.3     
  22 C22           -9.5328     3.1756     1.6566 C.3     
  23 C23           -9.9789     3.9178     0.3952 C.3     
  24 H24            2.5592     6.0137     2.3005 H       
  25 H25            4.1326     4.6422     0.9642 H       
  26 H26            3.2585     2.8886    -0.5242 H       
  27 H27           -0.3004     6.2552     2.7374 H       
  28 H28           -1.5622     2.3876    -0.5068 H       
  29 H29           -6.1474     1.4396     0.0241 H       
  30 H30           -3.7295     1.1789    -0.1450 H       
  31 H31           -3.1793     5.3788     0.4519 H       
  32 H32           -5.4210     7.3566     1.9010 H       
  33 H33           -4.6546     7.3173     0.2949 H       
  34 H34           -6.3489     7.8372     0.4600 H       
  35 H35           -8.5446     2.2708    -0.1529 H       
  36 H36          -10.0394     2.2408     1.8962 H       
  37 H37           -9.2258     3.7770     2.5123 H       
  38 H38           -9.9655     5.0074     0.4211 H       
  39 H39          -10.7792     3.4712    -0.1950 H       
@<TRIPOS>BOND
   1    1    2 ar
   2    1    6 ar
   3    1    9 1
   4    2    3 ar
   5    2    8 1
   6    3    4 ar
   7    3   24 1
   8    4    5 ar
   9    4   25 1
  10    5    6 ar
  11    5   26 1
  12    7    8 1
  13    7    9 2
  14    8   27 1
  15    9   10 1
  16   10   17 1
  17   10   28 1
  18   11   12 1
  19   11   19 1
  20   11   20 1
  21   12   13 2
  22   13   14 1
  23   13   21 1
  24   14   15 ar
  25   14   19 ar
  26   15   16 ar
  27   15   29 1
  28   16   17 ar
  29   16   30 1
  30   17   18 ar
  31   18   19 ar
  32   18   31 1
  33   20   32 1
  34   20   33 1
  35   20   34 1
  36   21   22 1
  37   21   23 1
  38   21   35 1
  39   22   23 1
  40   22   36 1
  41   22   37 1
  42   23   38 1
  43   23   39 1

#	End of record

