#	Name: ASD08590014
#	Creating user name:	WinNT
#	Creation time:	15. 06. 2019 21:19

#	Modifying user name:	WinNT
#	Modification time:	15. 06. 2019 21:19

#	Program:	/corina/corina34_cracker 3.40 0067  02.08.2006

@<TRIPOS>MOLECULE
ASD08590014
  33   33    0    0    0
SMALL
NO_CHARGES


@<TRIPOS>ATOM
   1 O1            -0.2844     1.5119    -0.0485 O.3     
   2 C2            -0.0983     0.1831    -0.0852 C.2     
   3 C3            -1.2845    -0.7454    -0.0436 C.3     
   4 N4            -2.3239    -0.1716     0.8147 N.pl3   
   5 C5            -3.5627    -0.7948     0.9179 C.ar    
   6 C6            -4.5990    -0.1690     1.6034 C.ar    
   7 C7            -3.7642    -2.0409     0.3299 C.ar    
   8 C8            -4.9780    -2.6594     0.4263 C.ar    
   9 C9            -6.0257    -2.0430     1.1171 C.ar    
  10 C10           -5.8282    -0.7872     1.7059 C.ar    
  11 C11           -7.3357    -2.7100     1.2209 C.2     
  12 F12           -6.8361    -0.1857     2.3749 F       
  13 O13            1.0204    -0.2686    -0.1516 O.2     
  14 C14           -1.8366    -0.9313    -1.4584 C.3     
  15 C15           -0.8514    -2.1015     0.5170 C.3     
  16 O16           -8.2459    -2.1723     1.8221 O.2     
  17 N17           -7.5252    -3.9158     0.6494 N.am    
  18 C18            0.9037     2.3454    -0.0922 C.3     
  19 H19           -2.1480     0.6430     1.3110 H       
  20 H20           -4.4414     0.7992     2.0550 H       
  21 H21           -2.9574    -2.5201    -0.2049 H       
  22 H22           -5.1288    -3.6257    -0.0320 H       
  23 H23           -1.0369    -1.2654    -2.1195 H       
  24 H24           -2.6311    -1.6773    -1.4433 H       
  25 H25           -2.2350     0.0166    -1.8204 H       
  26 H26           -0.3079    -1.9521     1.4500 H       
  27 H27           -1.7323    -2.7155     0.7040 H       
  28 H28           -0.2052    -2.6029    -0.2035 H       
  29 H29           -6.7992    -4.3447     0.1699 H       
  30 H30           -8.3875    -4.3548     0.7177 H       
  31 H31            1.5406     2.1152     0.7619 H       
  32 H32            1.4498     2.1516    -1.0154 H       
  33 H33            0.6126     3.3952    -0.0558 H       
@<TRIPOS>BOND
   1    1    2 1
   2    1   18 1
   3    2    3 1
   4    2   13 2
   5    3    4 1
   6    3   14 1
   7    3   15 1
   8    4    5 1
   9    4   19 1
  10    5    6 ar
  11    5    7 ar
  12    6   10 ar
  13    6   20 1
  14    7    8 ar
  15    7   21 1
  16    8    9 ar
  17    8   22 1
  18    9   10 ar
  19    9   11 1
  20   10   12 1
  21   11   16 2
  22   11   17 am
  23   14   23 1
  24   14   24 1
  25   14   25 1
  26   15   26 1
  27   15   27 1
  28   15   28 1
  29   17   29 1
  30   17   30 1
  31   18   31 1
  32   18   32 1
  33   18   33 1

#	End of record

