#	Name: ASD01915037
#	Creating user name:	WinNT
#	Creation time:	15. 06. 2019 20:04

#	Modifying user name:	WinNT
#	Modification time:	15. 06. 2019 20:04

#	Program:	/corina/corina34_cracker 3.40 0067  02.08.2006

@<TRIPOS>MOLECULE
ASD01915037
  29   31    0    0    0
SMALL
NO_CHARGES


@<TRIPOS>ATOM
   1 C1            -0.0180     1.4731     0.0101 C.2     
   2 C2             0.0021    -0.0041     0.0020 C.ar    
   3 C3             1.2191    -0.6886    -0.0133 C.ar    
   4 C4             1.2313    -2.0674    -0.0208 C.ar    
   5 C5             0.0396    -2.7734    -0.0138 C.ar    
   6 C6            -1.1708    -2.1001     0.0014 C.ar    
   7 C7            -1.1959    -0.7215     0.0154 C.ar    
   8 O8             1.0263     2.0951     0.0035 O.2     
   9 N9            -1.1942     2.1310     0.0193 N.am    
  10 Cl10           0.0632    -4.5092    -0.0245 Cl      
  11 C11           -1.2129     3.5144     0.0269 C.2     
  12 N12           -0.1061     4.3135     0.0260 N.pl3   
  13 C13           -0.5471     5.6257     0.0352 C.ar    
  14 C14           -1.9509     5.5656     0.0416 C.ar    
  15 N15           -2.2945     4.2514     0.0304 N.2     
  16 C16           -2.6898     6.7512     0.0515 C.ar    
  17 C17           -2.0371     7.9637     0.0551 C.ar    
  18 C18           -0.6513     8.0172     0.0488 C.ar    
  19 C19            0.0931     6.8555     0.0389 C.ar    
  20 H20            2.1489    -0.1392    -0.0195 H       
  21 H21            2.1720    -2.5979    -0.0327 H       
  22 H22           -2.0967    -2.6560     0.0065 H       
  23 H23           -2.1402    -0.1976     0.0321 H       
  24 H24           -2.0276     1.6346     0.0206 H       
  25 H25            0.8175     4.0170     0.0203 H       
  26 H26           -3.7692     6.7169     0.0561 H       
  27 H27           -2.6088     8.8799     0.0624 H       
  28 H28           -0.1515     8.9746     0.0516 H       
  29 H29            1.1720     6.9041     0.0344 H       
@<TRIPOS>BOND
   1    1    2 1
   2    1    8 2
   3    1    9 am
   4    2    3 ar
   5    2    7 ar
   6    3    4 ar
   7    3   20 1
   8    4    5 ar
   9    4   21 1
  10    5    6 ar
  11    5   10 1
  12    6    7 ar
  13    6   22 1
  14    7   23 1
  15    9   11 1
  16    9   24 1
  17   11   12 1
  18   11   15 2
  19   12   13 1
  20   12   25 1
  21   13   14 ar
  22   13   19 ar
  23   14   15 1
  24   14   16 ar
  25   16   17 ar
  26   16   26 1
  27   17   18 ar
  28   17   27 1
  29   18   19 ar
  30   18   28 1
  31   19   29 1

#	End of record

