#	Name: ASD03080123
#	Creating user name:	WinNT
#	Creation time:	15. 06. 2019 20:26

#	Modifying user name:	WinNT
#	Modification time:	15. 06. 2019 20:26

#	Program:	/corina/corina34_cracker 3.40 0067  02.08.2006

@<TRIPOS>MOLECULE
ASD03080123
  27   29    0    0    0
SMALL
NO_CHARGES


@<TRIPOS>ATOM
   1 N1             0.0175    -1.1399    -0.0042 N.1     
   2 C2             0.0021    -0.0041     0.0020 C.1     
   3 C3            -0.0173     1.4278     0.0099 C.ar    
   4 C4             1.1820     2.1446     0.0023 C.ar    
   5 C5             1.1593     3.5219     0.0094 C.ar    
   6 C6            -0.0549     4.1988     0.0242 C.ar    
   7 C7            -1.2503     3.4891     0.0322 C.ar    
   8 C8            -1.2358     2.1117     0.0194 C.ar    
   9 N9            -0.0739     5.5985     0.0314 N.pl3   
  10 N10            0.9528     6.3780     0.0253 N.2     
  11 N11            0.5668     7.6043     0.0347 N.2     
  12 C12           -0.7694     7.6595     0.0477 C.2     
  13 N13           -1.2152     6.4171     0.0405 N.2     
  14 C14           -1.5982     8.8909     0.0619 C.ar    
  15 C15           -0.9964    10.1516     0.0620 C.ar    
  16 C16           -1.8135    11.2694     0.0750 C.ar    
  17 C17           -3.1861    11.1036     0.0873 C.ar    
  18 N18           -3.7256     9.8997     0.0873 N.ar    
  19 C19           -2.9889     8.8079     0.0694 C.ar    
  20 H20            2.1257     1.6194    -0.0088 H       
  21 H21            2.0859     4.0766     0.0039 H       
  22 H22           -2.1917     4.0184     0.0444 H       
  23 H23           -2.1648     1.5610     0.0252 H       
  24 H24            0.0789    10.2519     0.0526 H       
  25 H25           -1.3833    12.2600     0.0758 H       
  26 H26           -3.8266    11.9731     0.0974 H       
  27 H27           -3.4672     7.8396     0.0700 H       
@<TRIPOS>BOND
   1    1    2 3
   2    2    3 1
   3    3    4 ar
   4    3    8 ar
   5    4    5 ar
   6    4   20 1
   7    5    6 ar
   8    5   21 1
   9    6    7 ar
  10    6    9 1
  11    7    8 ar
  12    7   22 1
  13    8   23 1
  14    9   10 1
  15    9   13 1
  16   10   11 2
  17   11   12 1
  18   12   13 2
  19   12   14 1
  20   14   15 ar
  21   14   19 ar
  22   15   16 ar
  23   15   24 1
  24   16   17 ar
  25   16   25 1
  26   17   18 ar
  27   17   26 1
  28   18   19 ar
  29   19   27 1

#	End of record

