#	Name: ASD01910126
#	Creating user name:	WinNT
#	Creation time:	15. 06. 2019 19:55

#	Modifying user name:	WinNT
#	Modification time:	15. 06. 2019 19:55

#	Program:	/corina/corina34_cracker 3.40 0067  02.08.2006

@<TRIPOS>MOLECULE
ASD01910126
  48   50    0    0    0
SMALL
NO_CHARGES


@<TRIPOS>ATOM
   1 N1             0.0471     1.5452    -0.4398 N.am    
   2 C2             0.4562     0.1801    -0.1002 C.3     
   3 C3             0.2685    -0.0475     1.3777 C.ar    
   4 C4            -1.0001    -0.2899     1.8879 C.ar    
   5 C5            -1.1695    -0.4992     3.2507 C.ar    
   6 C6            -0.0768    -0.4658     4.0942 C.ar    
   7 C7             1.1865    -0.2240     3.5829 C.ar    
   8 C8             1.3589    -0.0208     2.2252 C.ar    
   9 N9            -2.1053    -0.3228     1.0313 N.am    
  10 C10           -3.3100     0.0939     1.4691 C.2     
  11 C11           -4.4620     0.1365     0.5390 C.ar    
  12 O12           -3.4510     0.4347     2.6271 O.2     
  13 Cl13           2.5581    -0.1821     4.6463 Cl      
  14 C14           -5.7044     0.5681     0.9976 C.ar    
  15 C15           -6.7729     0.6030     0.1152 C.ar    
  16 C16           -6.5613     0.2048    -1.1953 C.ar    
  17 C17           -5.2980    -0.2133    -1.5828 C.ar    
  18 N18           -4.3004    -0.2318    -0.7262 N.ar    
  19 C19            0.9126     2.5665    -0.2841 C.2     
  20 C20            0.5577     3.9170    -0.7702 C.ar    
  21 C21           -0.5910     4.5525    -0.2965 C.ar    
  22 C22           -1.3220     1.5654    -2.4663 C.3     
  23 C23           -1.3008     1.7993    -0.9545 C.3     
  24 C24            1.3730     4.5636    -1.7001 C.ar    
  25 C25            1.0365     5.8250    -2.1499 C.ar    
  26 C26           -0.1071     6.4483    -1.6803 C.ar    
  27 C27           -0.9171     5.8140    -0.7538 C.ar    
  28 Cl28           2.0498     6.6313    -3.3062 Cl      
  29 Cl29          -2.3493     6.6032    -0.1712 Cl      
  30 O30            1.9851     2.3774     0.2558 O.2     
  31 H31           -0.1533    -0.5312    -0.6576 H       
  32 H32            1.5058     0.0403    -0.3589 H       
  33 H33           -2.1551    -0.6876     3.6501 H       
  34 H34           -0.2080    -0.6282     5.1538 H       
  35 H35            2.3457     0.1677     1.8288 H       
  36 H36           -2.0048    -0.6455     0.1220 H       
  37 H37           -5.8334     0.8710     2.0262 H       
  38 H38           -7.7482     0.9326     0.4416 H       
  39 H39           -7.3730     0.2198    -1.9075 H       
  40 H40           -5.1296    -0.5243    -2.6033 H       
  41 H41           -1.2238     4.0586     0.4260 H       
  42 H42           -1.1316     0.5124    -2.6738 H       
  43 H43           -2.2984     1.8432    -2.8633 H       
  44 H44           -0.5510     2.1740    -2.9390 H       
  45 H45           -2.0072     1.1235    -0.4723 H       
  46 H46           -1.5822     2.8308    -0.7424 H       
  47 H47            2.2655     4.0786    -2.0669 H       
  48 H48           -0.3660     7.4350    -2.0348 H       
@<TRIPOS>BOND
   1    1    2 1
   2    1   19 am
   3    1   23 1
   4    2    3 1
   5    2   31 1
   6    2   32 1
   7    3    4 ar
   8    3    8 ar
   9    4    5 ar
  10    4    9 1
  11    5    6 ar
  12    5   33 1
  13    6    7 ar
  14    6   34 1
  15    7    8 ar
  16    7   13 1
  17    8   35 1
  18    9   10 am
  19    9   36 1
  20   10   11 1
  21   10   12 2
  22   11   14 ar
  23   11   18 ar
  24   14   15 ar
  25   14   37 1
  26   15   16 ar
  27   15   38 1
  28   16   17 ar
  29   16   39 1
  30   17   18 ar
  31   17   40 1
  32   19   20 1
  33   19   30 2
  34   20   21 ar
  35   20   24 ar
  36   21   27 ar
  37   21   41 1
  38   22   23 1
  39   22   42 1
  40   22   43 1
  41   22   44 1
  42   23   45 1
  43   23   46 1
  44   24   25 ar
  45   24   47 1
  46   25   26 ar
  47   25   28 1
  48   26   27 ar
  49   26   48 1
  50   27   29 1

#	End of record

