#	Name: ASD00230001
#	Creating user name:	WinNT
#	Creation time:	15. 06. 2019 18:33

#	Modifying user name:	WinNT
#	Modification time:	15. 06. 2019 18:33

#	Program:	/corina/corina34_cracker 3.40 0067  02.08.2006

@<TRIPOS>MOLECULE
ASD00230001
  26   25    0    0    0
SMALL
NO_CHARGES


@<TRIPOS>ATOM
   1 C1            -0.0184     1.5028     0.0103 C.3     
   2 C2             0.0021    -0.0041     0.0020 C.2     
   3 O3             1.0609    -0.5963    -0.0113 O.2     
   4 S4            -1.4687    -0.8802     0.0114 S.3     
   5 C5            -0.8267    -2.5724    -0.0039 C.3     
   6 C6            -1.9944    -3.5610     0.0020 C.3     
   7 N7            -1.4734    -4.9344    -0.0104 N.4     
   8 C8            -0.6408    -5.1530     1.1800 C.3     
   9 C9            -2.5945    -5.8836    -0.0048 C.3     
  10 C10           -0.6637    -5.1401    -1.2187 C.3     
  11 H11            1.0042     1.8801     0.0026 H       
  12 H12           -0.5455     1.8639    -0.8728 H       
  13 H13           -0.5286     1.8543     0.9071 H       
  14 H14           -0.2259    -2.7250    -0.9005 H       
  15 H15           -0.2089    -2.7346     0.8794 H       
  16 H16           -2.5952    -3.4084     0.8986 H       
  17 H17           -2.6122    -3.3988    -0.8813 H       
  18 H18           -1.2416    -5.0003     2.0766 H       
  19 H19           -0.2541    -6.1720     1.1708 H       
  20 H20            0.1911    -4.4487     1.1758 H       
  21 H21           -3.2123    -5.7214    -0.8880 H       
  22 H22           -2.2079    -6.9026    -0.0139 H       
  23 H23           -3.1953    -5.7309     0.8918 H       
  24 H24            0.1682    -4.4358    -1.2229 H       
  25 H25           -0.2770    -6.1592    -1.2279 H       
  26 H26           -1.2815    -4.9779    -2.1020 H       
@<TRIPOS>BOND
   1    1    2 1
   2    1   11 1
   3    1   12 1
   4    1   13 1
   5    2    3 2
   6    2    4 1
   7    4    5 1
   8    5    6 1
   9    5   14 1
  10    5   15 1
  11    6    7 1
  12    6   16 1
  13    6   17 1
  14    7    8 1
  15    7    9 1
  16    7   10 1
  17    8   18 1
  18    8   19 1
  19    8   20 1
  20    9   21 1
  21    9   22 1
  22    9   23 1
  23   10   24 1
  24   10   25 1
  25   10   26 1

#	End of record

