#	Name: ASD02500604
#	Creating user name:	WinNT
#	Creation time:	15. 06. 2019 20:23

#	Modifying user name:	WinNT
#	Modification time:	15. 06. 2019 20:23

#	Program:	/corina/corina34_cracker 3.40 0067  02.08.2006

@<TRIPOS>MOLECULE
ASD02500604
  71   76    0    0    0
SMALL
NO_CHARGES


@<TRIPOS>ATOM
   1 N1            -5.2782     5.6046    -1.1249 N.ar    
   2 C2            -6.3064     6.1776    -1.7016 C.ar    
   3 C3            -7.5969     6.0532    -1.1910 C.ar    
   4 C4            -7.8148     5.3183    -0.0607 C.ar    
   5 C5            -6.7082     4.7040     0.5557 C.ar    
   6 C6            -6.8543     3.9337     1.7203 C.ar    
   7 C7            -5.7591     3.3560     2.2868 C.ar    
   8 C8            -4.4942     3.5194     1.7262 C.ar    
   9 C9            -4.3163     4.2595     0.5979 C.ar    
  10 C10           -5.4225     4.8716    -0.0163 C.ar    
  11 S11           -2.7053     4.4503    -0.0897 S.o2    
  12 O12           -2.5365     5.8394    -0.3369 O.2     
  13 O13           -1.8261     3.6946     0.7321 O.2     
  14 N14           -2.7135     3.7095    -1.5708 N.am    
  15 C15           -2.8690     2.3305    -1.6574 C.ar    
  16 C16           -2.1787     1.6133    -2.6310 C.ar    
  17 C17           -2.3305     0.2486    -2.7193 C.ar    
  18 C18           -3.1791    -0.4179    -1.8303 C.ar    
  19 C19           -3.8707     0.3049    -0.8541 C.ar    
  20 C20           -3.7102     1.6691    -0.7672 C.ar    
  21 C21           -3.3445    -1.8809    -1.9226 C.2     
  22 O22           -3.4295    -2.4156    -3.0113 O.2     
  23 N23           -3.4013    -2.6247    -0.8001 N.am    
  24 C24           -3.4627    -4.0926    -0.8696 C.3     
  25 C25           -2.3742    -4.6691     0.0421 C.3     
  26 N26           -2.5196    -4.1044     1.3904 N.3     
  27 C27           -2.3174    -2.6494     1.3835 C.3     
  28 C28           -3.3974    -1.9905     0.5269 C.3     
  29 C29           -1.6057    -4.7584     2.3364 C.3     
  30 C30           -1.6200    -4.0011     3.6657 C.3     
  31 C31           -2.9762    -3.7811     4.3389 C.3     
  32 C32           -1.9862    -4.7901     4.9244 C.3     
  33 C33           -0.5898    -2.9099     3.8032 C.ar    
  34 C34            0.6354    -3.0328     3.1749 C.ar    
  35 C35            1.5804    -2.0319     3.3011 C.ar    
  36 C36            1.3001    -0.9077     4.0552 C.ar    
  37 C37            0.0746    -0.7843     4.6827 C.ar    
  38 C38           -0.8720    -1.7833     4.5530 C.ar    
  39 C39           -1.2646     2.3325    -3.5892 C.3     
  40 H40           -6.1492     6.7619    -2.5962 H       
  41 H41           -8.4240     6.5379    -1.6884 H       
  42 H42           -8.8083     5.2116     0.3491 H       
  43 H43           -7.8297     3.8004     2.1645 H       
  44 H44           -5.8724     2.7636     3.1827 H       
  45 H45           -3.6409     3.0516     2.1948 H       
  46 H46           -2.6098     4.2375    -2.3778 H       
  47 H47           -1.7950    -0.3070    -3.4749 H       
  48 H48           -4.5269    -0.2071    -0.1658 H       
  49 H49           -4.2407     2.2275    -0.0101 H       
  50 H50           -4.4413    -4.4345    -0.5328 H       
  51 H51           -3.2912    -4.4181    -1.8956 H       
  52 H52           -2.4756    -5.7533     0.0889 H       
  53 H53           -1.3926    -4.4120    -0.3560 H       
  54 H54           -2.3776    -2.2690     2.4031 H       
  55 H55           -1.3366    -2.4205     0.9667 H       
  56 H56           -3.1828    -0.9268     0.4237 H       
  57 H57           -4.3697    -2.1264     1.0005 H       
  58 H58           -1.9275    -5.7868     2.5006 H       
  59 H59           -0.5954    -4.7549     1.9271 H       
  60 H60           -3.1232    -2.8473     4.8816 H       
  61 H61           -3.8583    -4.1759     3.8347 H       
  62 H62           -2.2170    -5.8488     4.8054 H       
  63 H63           -1.4819    -4.5201     5.8522 H       
  64 H64            0.8544    -3.9111     2.5858 H       
  65 H65            2.5379    -2.1283     2.8108 H       
  66 H66            2.0387    -0.1260     4.1543 H       
  67 H67           -0.1443     0.0938     5.2721 H       
  68 H68           -1.8309    -1.6853     5.0403 H       
  69 H69           -0.2599     2.3769    -3.1689 H       
  70 H70           -1.2383     1.7965    -4.5379 H       
  71 H71           -1.6345     3.3445    -3.7539 H       
@<TRIPOS>BOND
   1    1    2 ar
   2    1   10 ar
   3    2    3 ar
   4    2   40 1
   5    3    4 ar
   6    3   41 1
   7    4    5 ar
   8    4   42 1
   9    5    6 ar
  10    5   10 ar
  11    6    7 ar
  12    6   43 1
  13    7    8 ar
  14    7   44 1
  15    8    9 ar
  16    8   45 1
  17    9   10 ar
  18    9   11 1
  19   11   12 2
  20   11   13 2
  21   11   14 am
  22   14   15 1
  23   14   46 1
  24   15   16 ar
  25   15   20 ar
  26   16   17 ar
  27   16   39 1
  28   17   18 ar
  29   17   47 1
  30   18   19 ar
  31   18   21 1
  32   19   20 ar
  33   19   48 1
  34   20   49 1
  35   21   22 2
  36   21   23 am
  37   23   24 1
  38   23   28 1
  39   24   25 1
  40   24   50 1
  41   24   51 1
  42   25   26 1
  43   25   52 1
  44   25   53 1
  45   26   27 1
  46   26   29 1
  47   27   28 1
  48   27   54 1
  49   27   55 1
  50   28   56 1
  51   28   57 1
  52   29   30 1
  53   29   58 1
  54   29   59 1
  55   30   31 1
  56   30   32 1
  57   30   33 1
  58   31   32 1
  59   31   60 1
  60   31   61 1
  61   32   62 1
  62   32   63 1
  63   33   34 ar
  64   33   38 ar
  65   34   35 ar
  66   34   64 1
  67   35   36 ar
  68   35   65 1
  69   36   37 ar
  70   36   66 1
  71   37   38 ar
  72   37   67 1
  73   38   68 1
  74   39   69 1
  75   39   70 1
  76   39   71 1

#	End of record

