#	Name: ASD01148889
#	Creating user name:	WinNT
#	Creation time:	15. 06. 2019 19:03

#	Modifying user name:	WinNT
#	Modification time:	15. 06. 2019 19:03

#	Program:	/corina/corina34_cracker 3.40 0067  02.08.2006

@<TRIPOS>MOLECULE
ASD01148889
  51   54    0    0    0
SMALL
NO_CHARGES


@<TRIPOS>ATOM
   1 N1             0.2550     3.3043    -0.1011 N.am    
   2 C2             0.4260     1.8809    -0.4224 C.3     
   3 C3             1.3438     1.7577    -1.6428 C.3     
   4 C4             2.6527     2.5018    -1.3689 C.3     
   5 C5             2.3586     3.9852    -1.1335 C.3     
   6 C6             1.4523     4.1336     0.0926 C.3     
   7 S7            -1.2584     3.9631     0.0334 S.o2    
   8 O8            -1.1126     5.3559    -0.2074 O.2     
   9 O9            -2.1271     3.1304    -0.7225 O.2     
  10 C10           -1.7513     3.7981     1.7170 C.ar    
  11 C11           -1.4580     4.8005     2.6232 C.ar    
  12 C12           -1.8435     4.6743     3.9435 C.ar    
  13 C13           -2.5261     3.5395     4.3604 C.ar    
  14 C14           -2.8192     2.5347     3.4481 C.ar    
  15 C15           -2.4357     2.6691     2.1281 C.ar    
  16 N16           -2.9182     3.4083     5.6994 N.pl3   
  17 C17           -4.2118     3.4162     6.1608 C.2     
  18 C18           -4.1738     3.2637     7.5142 C.2     
  19 C19           -2.8233     3.1602     7.8871 C.2     
  20 C20           -2.0785     3.2452     6.7636 C.2     
  21 C21           -0.5747     3.1751     6.6965 C.3     
  22 C22           -5.4293     3.5645     5.3354 C.ar    
  23 C23           -6.6646     3.1382     5.8261 C.ar    
  24 C24           -7.7972     3.2796     5.0516 C.ar    
  25 C25           -7.7104     3.8427     3.7895 C.ar    
  26 C26           -6.4877     4.2670     3.2971 C.ar    
  27 C27           -5.3491     4.1365     4.0648 C.ar    
  28 Cl28          -9.1402     4.0168     2.8204 Cl      
  29 H29            0.8758     1.3661     0.4265 H       
  30 H30           -0.5441     1.4382    -0.6486 H       
  31 H31            1.5563     0.7057    -1.8334 H       
  32 H32            0.8527     2.1935    -2.5128 H       
  33 H33            3.1310     2.0817    -0.4842 H       
  34 H34            3.3174     2.3950    -2.2261 H       
  35 H35            3.2934     4.5186    -0.9617 H       
  36 H36            1.8579     4.4000    -2.0083 H       
  37 H37            1.1594     5.1773     0.2063 H       
  38 H38            1.9858     3.8026     0.9836 H       
  39 H39           -0.9266     5.6828     2.2983 H       
  40 H40           -1.6138     5.4573     4.6509 H       
  41 H41           -3.3499     1.6507     3.7696 H       
  42 H42           -2.6673     1.8899     1.4170 H       
  43 H43           -5.0250     3.2288     8.1779 H       
  44 H44           -2.4482     3.0310     8.8916 H       
  45 H45           -0.1595     4.1781     6.7950 H       
  46 H46           -0.2036     2.5471     7.5064 H       
  47 H47           -0.2731     2.7495     5.7393 H       
  48 H48           -6.7334     2.6983     6.8100 H       
  49 H49           -8.7535     2.9502     5.4301 H       
  50 H50           -6.4262     4.7051     2.3119 H       
  51 H51           -4.3967     4.4719     3.6815 H       
@<TRIPOS>BOND
   1    1    2 1
   2    1    6 1
   3    1    7 am
   4    2    3 1
   5    2   29 1
   6    2   30 1
   7    3    4 1
   8    3   31 1
   9    3   32 1
  10    4    5 1
  11    4   33 1
  12    4   34 1
  13    5    6 1
  14    5   35 1
  15    5   36 1
  16    6   37 1
  17    6   38 1
  18    7    8 2
  19    7    9 2
  20    7   10 1
  21   10   11 ar
  22   10   15 ar
  23   11   12 ar
  24   11   39 1
  25   12   13 ar
  26   12   40 1
  27   13   14 ar
  28   13   16 1
  29   14   15 ar
  30   14   41 1
  31   15   42 1
  32   16   17 1
  33   16   20 1
  34   17   18 2
  35   17   22 1
  36   18   19 1
  37   18   43 1
  38   19   20 2
  39   19   44 1
  40   20   21 1
  41   21   45 1
  42   21   46 1
  43   21   47 1
  44   22   23 ar
  45   22   27 ar
  46   23   24 ar
  47   23   48 1
  48   24   25 ar
  49   24   49 1
  50   25   26 ar
  51   25   28 1
  52   26   27 ar
  53   26   50 1
  54   27   51 1

#	End of record

