#	Name: ASD04840047
#	Creating user name:	WinNT
#	Creation time:	15. 06. 2019 20:52

#	Modifying user name:	WinNT
#	Modification time:	15. 06. 2019 20:52

#	Program:	/corina/corina34_cracker 3.40 0067  02.08.2006

@<TRIPOS>MOLECULE
ASD04840047
  31   32    0    0    0
SMALL
NO_CHARGES


@<TRIPOS>ATOM
   1 C1            -0.1399     0.9176    -0.6351 C.ar    
   2 C2            -0.0242    -0.4079    -0.3258 C.ar    
   3 C3             1.2407    -0.9709    -0.1365 C.ar    
   4 C4             2.3832    -0.1636    -0.2673 C.ar    
   5 C5             2.2461     1.1816    -0.5821 C.ar    
   6 C6             0.9883     1.7154    -0.7644 C.ar    
   7 N7             1.6728    -2.2210     0.1706 N.2     
   8 C8             2.9722    -2.2311     0.2347 C.2     
   9 N9             3.4629    -0.9895    -0.0266 N.pl3   
  10 *10            3.8410    -3.4844     0.5638 Du      
  11 C11            4.8753    -0.6011    -0.0492 C.3     
  12 C12            5.3865    -0.6203    -1.4911 C.3     
  13 P13            7.0938     0.0169    -1.5391 P.3     
  14 O14            7.9374    -0.7614    -0.6048 O.2     
  15 O15            7.6773    -0.1236    -3.0331 O.3     
  16 O16            7.1005     1.5670    -1.1040 O.3     
  17 P17            5.3580    -2.3300    -2.1232 P.3     
  18 O18            6.2265    -3.1821    -1.2805 O.2     
  19 O19            3.8502    -2.8928    -2.0808 O.3     
  20 O20            5.8960    -2.3502    -3.6405 O.3     
  21 H21           -1.1190     1.3481    -0.7850 H       
  22 H22           -0.9088    -1.0195    -0.2273 H       
  23 H23            3.1208     1.8068    -0.6839 H       
  24 H24            0.8801     2.7616    -1.0097 H       
  25 H25            4.9826     0.4031     0.3610 H       
  26 H26            5.4547    -1.3026     0.5511 H       
  27 H27            4.7469     0.0072    -2.1118 H       
  28 H28            7.7028    -1.0327    -3.3615 H       
  29 H29            6.8338     1.7192    -0.1870 H       
  30 H30            3.2245    -2.3817    -2.6122 H       
  31 H31            5.9084    -3.2300    -4.0417 H       
@<TRIPOS>BOND
   1    1    2 ar
   2    1    6 ar
   3    1   21 1
   4    2    3 ar
   5    2   22 1
   6    3    4 ar
   7    3    7 1
   8    4    5 ar
   9    4    9 1
  10    5    6 ar
  11    5   23 1
  12    6   24 1
  13    7    8 2
  14    8    9 1
  15    8   10 1
  16    9   11 1
  17   11   12 1
  18   11   25 1
  19   11   26 1
  20   12   13 1
  21   12   17 1
  22   12   27 1
  23   13   14 2
  24   13   15 1
  25   13   16 1
  26   15   28 1
  27   16   29 1
  28   17   18 2
  29   17   19 1
  30   17   20 1
  31   19   30 1
  32   20   31 1

#	End of record

