#	Name: ASD01812779
#	Creating user name:	WinNT
#	Creation time:	15. 06. 2019 19:29

#	Modifying user name:	WinNT
#	Modification time:	15. 06. 2019 19:29

#	Program:	/corina/corina34_cracker 3.40 0067  02.08.2006

@<TRIPOS>MOLECULE
ASD01812779
  54   58    0    0    0
SMALL
NO_CHARGES


@<TRIPOS>ATOM
   1 N1             0.0027     1.3186    -0.2236 N.ar    
   2 C2             0.0319     0.0060    -0.3476 C.ar    
   3 C3             1.2341    -0.6841    -0.3699 C.ar    
   4 C4             2.4113     0.0206    -0.2601 C.ar    
   5 C5             2.3614     1.4132    -0.1292 C.ar    
   6 C6             1.1073     2.0396    -0.1149 C.ar    
   7 C7             3.8682    -0.3580    -0.2439 C.3     
   8 N8             4.6151     0.8976    -0.0975 N.am    
   9 C9             3.7395     1.9163    -0.0318 C.2     
  10 C10            6.0736     1.0204    -0.0331 C.3     
  11 C11            6.6248     1.1969    -1.4245 C.ar    
  12 C12            6.7718     2.4674    -1.9513 C.ar    
  13 C13            7.2757     2.6349    -3.2253 C.ar    
  14 C14            7.6370     1.5212    -3.9808 C.ar    
  15 C15            7.4872     0.2437    -3.4449 C.ar    
  16 C16            6.9871     0.0881    -2.1679 C.ar    
  17 O17            1.0259     3.3855     0.0104 O.3     
  18 O18            4.0442     3.0870     0.0906 O.2     
  19 C19            8.1788     1.6950    -5.3511 C.ar    
  20 C20           -0.2022     3.9617    -0.0794 C.ar    
  21 C21           -2.7027     5.1341    -0.2629 C.ar    
  22 C22           -1.8989     5.0414    -1.3841 C.ar    
  23 C23           -0.6502     4.4566    -1.2950 C.ar    
  24 C24           -1.0131     4.0508     1.0452 C.ar    
  25 C25           -2.2623     4.6374     0.9498 C.ar    
  26 F26           -0.5825     3.5649     2.2299 F       
  27 C27            8.5485     0.5908    -6.1289 C.ar    
  28 C28            9.0459     0.8314    -7.3972 C.ar    
  29 N29            9.1586     2.0710    -7.8371 N.ar    
  30 N30            8.8216     3.0865    -7.1294 N.ar    
  31 C31            8.3320     2.9654    -5.9115 C.ar    
  32 C32            9.4593    -0.3210    -8.2760 C.3     
  33 C33           -4.0638     5.7731    -0.3641 C.3     
  34 F34           -5.0151     4.7967    -0.6785 F       
  35 F35           -4.3922     6.3673     0.8591 F       
  36 F36           -4.0477     6.7484    -1.3670 F       
  37 H37           -0.8958    -0.5403    -0.4329 H       
  38 H38            1.2467    -1.7592    -0.4715 H       
  39 H39            4.0748    -1.0175     0.5989 H       
  40 H40            4.1385    -0.8481    -1.1792 H       
  41 H41            6.3389     1.8851     0.5752 H       
  42 H42            6.4947     0.1194     0.4129 H       
  43 H43            6.4914     3.3299    -1.3649 H       
  44 H44            7.3894     3.6273    -3.6359 H       
  45 H45            7.7653    -0.6229    -4.0263 H       
  46 H46            6.8743    -0.9013    -1.7500 H       
  47 H47           -2.2458     5.4304    -2.3300 H       
  48 H48           -0.0233     4.3852    -2.1715 H       
  49 H49           -2.8920     4.7113     1.8241 H       
  50 H50            8.4490    -0.4160    -5.7508 H       
  51 H51            8.0546     3.8441    -5.3481 H       
  52 H52            8.6066    -0.6484    -8.8708 H       
  53 H53           10.2636    -0.0020    -8.9389 H       
  54 H54            9.8066    -1.1459    -7.6539 H       
@<TRIPOS>BOND
   1    1    2 ar
   2    1    6 ar
   3    2    3 ar
   4    2   37 1
   5    3    4 ar
   6    3   38 1
   7    4    7 1
   8    4    5 ar
   9    5    6 ar
  10    5    9 1
  11    6   17 1
  12    7    8 1
  13    7   39 1
  14    7   40 1
  15    8    9 am
  16    8   10 1
  17    9   18 2
  18   10   11 1
  19   10   41 1
  20   10   42 1
  21   11   12 ar
  22   11   16 ar
  23   12   13 ar
  24   12   43 1
  25   13   14 ar
  26   13   44 1
  27   14   15 ar
  28   14   19 1
  29   15   16 ar
  30   15   45 1
  31   16   46 1
  32   17   20 1
  33   19   27 ar
  34   19   31 ar
  35   20   24 ar
  36   20   23 ar
  37   21   22 ar
  38   21   25 ar
  39   21   33 1
  40   22   23 ar
  41   22   47 1
  42   23   48 1
  43   24   25 ar
  44   24   26 1
  45   25   49 1
  46   27   28 ar
  47   27   50 1
  48   28   29 ar
  49   28   32 1
  50   29   30 ar
  51   30   31 ar
  52   31   51 1
  53   32   52 1
  54   32   53 1
  55   32   54 1
  56   33   34 1
  57   33   35 1
  58   33   36 1

#	End of record

