#	Name: ASD09080012
#	Creating user name:	WinNT
#	Creation time:	15. 06. 2019 21:20

#	Modifying user name:	WinNT
#	Modification time:	15. 06. 2019 21:20

#	Program:	/corina/corina34_cracker 3.40 0067  02.08.2006

@<TRIPOS>MOLECULE
ASD09080012
  56   57    0    0    0
SMALL
NO_CHARGES


@<TRIPOS>ATOM
   1 C1            -0.0167     1.3799     0.0096 C.ar    
   2 C2             0.0021    -0.0041     0.0020 C.ar    
   3 C3            -1.1844    -0.7169     0.0095 C.ar    
   4 C4            -2.3938    -0.0494     0.0246 C.ar    
   5 C5            -2.4179     1.3436     0.0328 C.ar    
   6 C6            -1.2209     2.0565     0.0305 C.ar    
   7 Cl7            1.4756     2.2669     0.0001 Cl      
   8 Cl8           -1.1526    -2.4526    -0.0007 Cl      
   9 C9            -3.7143     2.0655     0.0485 C.ar    
  10 C10           -3.7388     3.4586     0.0567 C.ar    
  11 C11           -4.9474     4.1250     0.0708 C.ar    
  12 C12           -6.1329     3.4123     0.0773 C.ar    
  13 C13           -6.1144     2.0293     0.0697 C.ar    
  14 C14           -4.9116     1.3528     0.0493 C.ar    
  15 C15           -7.4494     4.1455     0.0932 C.3     
  16 C16           -7.9078     4.4019    -1.3438 C.3     
  17 C17           -9.1788     5.2535    -1.3294 C.3     
  18 C18           -9.6677     5.5303    -2.7682 C.3     
  19 N19           -8.1849     3.1199    -2.0055 N.3     
  20 O20          -10.1106     6.8993    -2.7563 O.3     
  21 O21           -8.9006     6.5811    -0.8216 O.3     
  22 C22           -9.9421     7.3866    -1.4141 C.3     
  23 C23           -9.5208     8.8573    -1.4374 C.3     
  24 C24          -11.2445     7.2241    -0.6279 C.3     
  25 C25          -10.8114     4.6132    -3.1177 C.2     
  26 O26          -11.9101     5.0704    -3.3268 O.2     
  27 O27          -10.6094     3.2886    -3.1967 O.3     
  28 C28          -11.3351     0.9959    -3.5805 C.3     
  29 C29          -11.7563     2.4661    -3.5381 C.3     
  30 H30            0.9456    -0.5295    -0.0102 H       
  31 H31           -3.3190    -0.6065     0.0298 H       
  32 H32           -1.2346     3.1364     0.0368 H       
  33 H33           -2.8137     4.0160     0.0524 H       
  34 H34           -4.9675     5.2048     0.0772 H       
  35 H35           -7.0430     1.4778     0.0752 H       
  36 H36           -4.8983     0.2729     0.0431 H       
  37 H37           -8.1953     3.5418     0.6103 H       
  38 H38           -7.3293     5.0969     0.6115 H       
  39 H39           -7.1234     4.9290    -1.8868 H       
  40 H40           -9.9596     4.7690    -0.7431 H       
  41 H41           -8.8494     5.4033    -3.4770 H       
  42 H42           -8.9093     2.6118    -1.5205 H       
  43 H43           -8.4274     3.2584    -2.9750 H       
  44 H44           -8.6084     8.9646    -2.0240 H       
  45 H45          -10.3138     9.4554    -1.8864 H       
  46 H46           -9.3400     9.1997    -0.4185 H       
  47 H47          -11.0889     7.5426     0.4028 H       
  48 H48          -12.0229     7.8360    -1.0837 H       
  49 H49          -11.5497     6.1777    -0.6427 H       
  50 H50          -12.1960     0.3785    -3.8367 H       
  51 H51          -10.5561     0.8627    -4.3312 H       
  52 H52          -10.9529     0.6991    -2.6038 H       
  53 H53          -12.5353     2.5994    -2.7874 H       
  54 H54          -12.1385     2.7629    -4.5148 H       
  55 Cl55           6.4756    14.4554     5.6115 Cl      
  56 H56            6.4756    15.8254     5.6115 H       
@<TRIPOS>BOND
   1    1    2 ar
   2    1    7 1
   3    1    6 ar
   4    2    3 ar
   5    2   30 1
   6    3    4 ar
   7    3    8 1
   8    4    5 ar
   9    4   31 1
  10    5    6 ar
  11    5    9 1
  12    6   32 1
  13    9   10 ar
  14    9   14 ar
  15   10   11 ar
  16   10   33 1
  17   11   12 ar
  18   11   34 1
  19   12   13 ar
  20   12   15 1
  21   13   14 ar
  22   13   35 1
  23   14   36 1
  24   15   16 1
  25   15   37 1
  26   15   38 1
  27   16   19 1
  28   16   17 1
  29   16   39 1
  30   17   18 1
  31   17   21 1
  32   17   40 1
  33   18   20 1
  34   18   25 1
  35   18   41 1
  36   19   42 1
  37   19   43 1
  38   20   22 1
  39   21   22 1
  40   22   23 1
  41   22   24 1
  42   23   44 1
  43   23   45 1
  44   23   46 1
  45   24   47 1
  46   24   48 1
  47   24   49 1
  48   25   26 2
  49   25   27 1
  50   27   29 1
  51   28   29 1
  52   28   50 1
  53   28   51 1
  54   28   52 1
  55   29   53 1
  56   29   54 1
  57   55   56 1

#	End of record

