#	Name: ASD01180344
#	Creating user name:	WinNT
#	Creation time:	15. 06. 2019 19:07

#	Modifying user name:	WinNT
#	Modification time:	15. 06. 2019 19:07

#	Program:	/corina/corina34_cracker 3.40 0067  02.08.2006

@<TRIPOS>MOLECULE
ASD01180344
  64   66    0    0    0
SMALL
NO_CHARGES


@<TRIPOS>ATOM
   1 C1             0.6210     1.6669    -0.0043 C.2     
   2 C2             0.5684     0.1608    -0.0014 C.3     
   3 C3             1.9919    -0.3992    -0.0308 C.3     
   4 O4             1.6876     2.2341    -0.0276 O.2     
   5 O5            -0.5172     2.3782     0.0134 O.3     
   6 C6             3.0835    -2.5776    -0.0513 C.2     
   7 C7             3.0320    -4.0551    -0.0484 C.ar    
   8 C8             4.2119    -4.8086    -0.0725 C.ar    
   9 C9             4.1089    -6.1884    -0.0681 C.ar    
  10 C10            2.8556    -6.7738    -0.0404 C.ar    
  11 N11            1.7607    -6.0382    -0.0181 N.ar    
  12 C12            1.8069    -4.7220    -0.0158 C.ar    
  13 O13            4.1565    -2.0069    -0.0747 O.2     
  14 N14            1.9408    -1.8633    -0.0280 N.am    
  15 C15            2.7393    -8.2763    -0.0361 C.3     
  16 C16            1.9648    -8.7243     1.2050 C.3     
  17 C17            1.7837   -10.2432     1.1723 C.3     
  18 C18            1.1348   -10.7076     2.4778 C.3     
  19 N19            4.0786    -8.8697    -0.0164 N.pl3   
  20 C20            6.1188    -9.5266    -3.5892 C.ar    
  21 C21            6.7393    -9.7985    -2.3708 C.ar    
  22 C22            6.0626    -9.5803    -1.1898 C.ar    
  23 C23            4.7621    -9.0894    -1.2132 C.ar    
  24 C24            4.1415    -8.8175    -2.4271 C.ar    
  25 C25            4.8147    -9.0343    -3.6104 C.ar    
  26 C26            6.8472    -9.7549    -4.8611 C.ar    
  27 C27            6.2284    -9.4835    -6.0799 C.ar    
  28 C28            6.9109    -9.6979    -7.2602 C.ar    
  29 C29            8.2068   -10.1811    -7.2348 C.ar    
  30 C30            8.8258   -10.4526    -6.0280 C.ar    
  31 C31            8.1550   -10.2361    -4.8414 C.ar    
  32 C32            8.9468   -10.4131    -8.5269 C.3     
  33 F33            9.6357    -9.2493    -8.8852 F       
  34 F34            9.8578   -11.4618    -8.3608 F       
  35 F35            8.0340   -10.7435    -9.5343 F       
  36 C36            0.8866   -10.6246    -0.0069 C.3     
  37 H37            0.0612    -0.1833     0.9000 H       
  38 H38            0.0235    -0.1854    -0.8796 H       
  39 H39            2.4991    -0.0552    -0.9322 H       
  40 H40            2.5368    -0.0530     0.8474 H       
  41 H41           -0.4330     3.3415     0.0106 H       
  42 H42            5.1775    -4.3253    -0.0943 H       
  43 H43            4.9975    -6.8019    -0.0866 H       
  44 H44            0.8886    -4.1541     0.0072 H       
  45 H45            1.0846    -2.3187    -0.0093 H       
  46 H46            2.2106    -8.6023    -0.9317 H       
  47 H47            2.5194    -8.4436     2.1004 H       
  48 H48            0.9873    -8.2420     1.2169 H       
  49 H49            2.7560   -10.7227     1.0592 H       
  50 H50            0.1625   -10.2281     2.5910 H       
  51 H51            1.0058   -11.7896     2.4546 H       
  52 H52            1.7739   -10.4358     3.3179 H       
  53 H53            4.4904    -9.1098     0.8284 H       
  54 H54            7.7494   -10.1802    -2.3523 H       
  55 H55            6.5429    -9.7912    -0.2458 H       
  56 H56            3.1310    -8.4366    -2.4431 H       
  57 H57            4.3322    -8.8227    -4.5532 H       
  58 H58            5.2165    -9.1066    -6.1009 H       
  59 H59            6.4322    -9.4883    -8.2053 H       
  60 H60            9.8374   -10.8304    -6.0141 H       
  61 H61            8.6409   -10.4438    -3.8995 H       
  62 H62            0.6736   -11.6930     0.0293 H       
  63 H63           -0.0474   -10.0657     0.0514 H       
  64 H64            1.3945   -10.3868    -0.9416 H       
@<TRIPOS>BOND
   1    1    2 1
   2    1    4 2
   3    1    5 1
   4    2    3 1
   5    2   37 1
   6    2   38 1
   7    3   14 1
   8    3   39 1
   9    3   40 1
  10    5   41 1
  11    6    7 1
  12    6   13 2
  13    6   14 am
  14    7    8 ar
  15    7   12 ar
  16    8    9 ar
  17    8   42 1
  18    9   10 ar
  19    9   43 1
  20   10   11 ar
  21   10   15 1
  22   11   12 ar
  23   12   44 1
  24   14   45 1
  25   15   16 1
  26   15   19 1
  27   15   46 1
  28   16   17 1
  29   16   47 1
  30   16   48 1
  31   17   18 1
  32   17   36 1
  33   17   49 1
  34   18   50 1
  35   18   51 1
  36   18   52 1
  37   19   23 1
  38   19   53 1
  39   20   21 ar
  40   20   25 ar
  41   20   26 1
  42   21   22 ar
  43   21   54 1
  44   22   23 ar
  45   22   55 1
  46   23   24 ar
  47   24   25 ar
  48   24   56 1
  49   25   57 1
  50   26   27 ar
  51   26   31 ar
  52   27   28 ar
  53   27   58 1
  54   28   29 ar
  55   28   59 1
  56   29   30 ar
  57   29   32 1
  58   30   31 ar
  59   30   60 1
  60   31   61 1
  61   32   33 1
  62   32   34 1
  63   32   35 1
  64   36   62 1
  65   36   63 1
  66   36   64 1

#	End of record

