#	Name: ASD01810428
#	Creating user name:	WinNT
#	Creation time:	15. 06. 2019 19:24

#	Modifying user name:	WinNT
#	Modification time:	15. 06. 2019 19:24

#	Program:	/corina/corina34_cracker 3.40 0067  02.08.2006

@<TRIPOS>MOLECULE
ASD01810428
  42   45    0    0    0
SMALL
NO_CHARGES


@<TRIPOS>ATOM
   1 N1            -0.0158     1.3163     0.0093 N.ar    
   2 C2             0.0021    -0.0041     0.0020 C.ar    
   3 C3             2.2983    -0.0854    -0.0203 C.ar    
   4 C4             2.3174     1.3230    -0.0130 C.ar    
   5 C5             1.1082     2.0155     0.0023 C.ar    
   6 N6             3.4721    -0.7925    -0.0348 N.pl3   
   7 C7             4.6761    -0.2006    -0.0423 C.2     
   8 C8             4.8239     1.1708    -0.0358 C.2     
   9 C9             3.6165     2.0156    -0.0216 C.2     
  10 O10            3.6900     3.2317    -0.0158 O.2     
  11 C11            6.1622     1.7789    -0.0439 C.2     
  12 C12            3.4096    -2.2561    -0.0421 C.3     
  13 C13            3.3751    -2.7504    -1.4653 C.ar    
  14 O14            7.1510     1.0719    -0.0564 O.2     
  15 O15            6.2930     3.1205    -0.0375 O.3     
  16 C16            4.5576    -3.0275    -2.1273 C.ar    
  17 C17            4.5319    -3.4804    -3.4308 C.ar    
  18 C18            3.3119    -3.6584    -4.0799 C.ar    
  19 C19            2.1238    -3.3777    -3.4082 C.ar    
  20 C20            2.1610    -2.9307    -2.1029 C.ar    
  21 C21            3.2780    -4.1447    -5.4814 C.ar    
  22 C22            2.0579    -4.3226    -6.1305 C.ar    
  23 C23            2.0323    -4.7752    -7.4341 C.ar    
  24 C24            3.2147    -5.0523    -8.0961 C.ar    
  25 C25            4.4287    -4.8779    -7.4564 C.ar    
  26 C26            4.4663    -4.4195    -6.1551 C.ar    
  27 N27            1.1191    -0.7007    -0.0124 N.ar    
  28 H28           -0.9387    -0.5345     0.0085 H       
  29 H29            1.0886     3.0953     0.0079 H       
  30 H30            5.5609    -0.8198    -0.0533 H       
  31 H31            4.2879    -2.6598     0.4616 H       
  32 H32            2.5096    -2.5840     0.4783 H       
  33 H33            7.1930     3.4739    -0.0432 H       
  34 H34            5.5027    -2.8889    -1.6234 H       
  35 H35            5.4558    -3.6962    -3.9469 H       
  36 H36            1.1754    -3.5140    -3.9066 H       
  37 H37            1.2407    -2.7128    -1.5814 H       
  38 H38            1.1340    -4.1072    -5.6143 H       
  39 H39            1.0872    -4.9135    -7.9382 H       
  40 H40            3.1901    -5.4066    -9.1160 H       
  41 H41            5.3490    -5.0961    -7.9778 H       
  42 H42            5.4147    -4.2833    -5.6567 H       
@<TRIPOS>BOND
   1    1    2 ar
   2    1    5 ar
   3    2   27 ar
   4    2   28 1
   5    3    4 ar
   6    3    6 1
   7    3   27 ar
   8    4    5 ar
   9    4    9 1
  10    5   29 1
  11    6    7 1
  12    6   12 1
  13    7    8 2
  14    7   30 1
  15    8    9 1
  16    8   11 1
  17    9   10 2
  18   11   14 2
  19   11   15 1
  20   12   13 1
  21   12   31 1
  22   12   32 1
  23   13   16 ar
  24   13   20 ar
  25   15   33 1
  26   16   17 ar
  27   16   34 1
  28   17   18 ar
  29   17   35 1
  30   18   19 ar
  31   18   21 1
  32   19   20 ar
  33   19   36 1
  34   20   37 1
  35   21   22 ar
  36   21   26 ar
  37   22   23 ar
  38   22   38 1
  39   23   24 ar
  40   23   39 1
  41   24   25 ar
  42   24   40 1
  43   25   26 ar
  44   25   41 1
  45   26   42 1

#	End of record

