#	Name: ASD01815610
#	Creating user name:	WinNT
#	Creation time:	15. 06. 2019 19:33

#	Modifying user name:	WinNT
#	Modification time:	15. 06. 2019 19:33

#	Program:	/corina/corina34_cracker 3.40 0067  02.08.2006

@<TRIPOS>MOLECULE
ASD01815610
  41   43    0    0    0
SMALL
NO_CHARGES


@<TRIPOS>ATOM
   1 C1             0.1033     1.4771     0.3879 C.ar    
   2 C2             0.0845     0.0898     0.3798 C.ar    
   3 C3             1.2532    -0.6296     0.2392 C.ar    
   4 C4             2.4695     0.0388     0.1028 C.ar    
   5 C5             2.4837     1.4435     0.1110 C.ar    
   6 C6             1.2937     2.1570     0.2546 C.ar    
   7 N7             3.6450    -0.6678    -0.0380 N.pl3   
   8 C8             4.8372    -0.0734    -0.1713 C.2     
   9 C9             4.9778     1.3000    -0.1779 C.2     
  10 C10            3.7766     2.1382    -0.0341 C.2     
  11 O11            3.8475     3.3547    -0.0341 O.2     
  12 C12            6.3046     1.9146    -0.3261 C.2     
  13 O13            7.2899     1.2125    -0.4441 O.2     
  14 O14            6.4288     3.2569    -0.3310 O.3     
  15 C15            3.5871    -2.1316    -0.0416 C.3     
  16 C16            3.4443    -2.6253    -1.4583 C.ar    
  17 C17            4.5645    -2.7671    -2.2558 C.ar    
  18 C18            4.4362    -3.2195    -3.5550 C.ar    
  19 C19            3.1821    -3.5314    -4.0589 C.ar    
  20 C20            2.0593    -3.3882    -3.2564 C.ar    
  21 C21            2.1935    -2.9409    -1.9565 C.ar    
  22 F22            1.2194    -1.9802     0.2341 F       
  23 C23            5.6578    -3.3734    -4.4240 C.3     
  24 O24            3.0532    -3.9762    -5.3366 O.3     
  25 C25            1.7315    -4.2782    -5.7882 C.3     
  26 F26            6.7952    -3.0001    -3.7000 F       
  27 F27            5.7784    -4.7078    -4.8267 F       
  28 F28            5.5337    -2.5553    -5.5521 F       
  29 H29           -0.8204     2.0264     0.4948 H       
  30 H30           -0.8550    -0.4324     0.4852 H       
  31 H31            1.3056     3.2369     0.2604 H       
  32 H32            5.7184    -0.6888    -0.2767 H       
  33 H33            7.3216     3.6147    -0.4311 H       
  34 H34            4.5031    -2.5325     0.3923 H       
  35 H35            2.7312    -2.4628     0.5466 H       
  36 H36            5.5407    -2.5238    -1.8631 H       
  37 H37            1.0817    -3.6304    -3.6464 H       
  38 H38            1.3198    -2.8293    -1.3314 H       
  39 H39            1.3032    -5.0602    -5.1613 H       
  40 H40            1.1129    -3.3829    -5.7259 H       
  41 H41            1.7704    -4.6217    -6.8219 H       
@<TRIPOS>BOND
   1    1    2 ar
   2    1    6 ar
   3    1   29 1
   4    2    3 ar
   5    2   30 1
   6    3    4 ar
   7    3   22 1
   8    4    5 ar
   9    4    7 1
  10    5    6 ar
  11    5   10 1
  12    6   31 1
  13    7    8 1
  14    7   15 1
  15    8    9 2
  16    8   32 1
  17    9   10 1
  18    9   12 1
  19   10   11 2
  20   12   13 2
  21   12   14 1
  22   14   33 1
  23   15   16 1
  24   15   34 1
  25   15   35 1
  26   16   17 ar
  27   16   21 ar
  28   17   18 ar
  29   17   36 1
  30   18   19 ar
  31   18   23 1
  32   19   20 ar
  33   19   24 1
  34   20   21 ar
  35   20   37 1
  36   21   38 1
  37   23   26 1
  38   23   27 1
  39   23   28 1
  40   24   25 1
  41   25   39 1
  42   25   40 1
  43   25   41 1

#	End of record

