#	Name: ASD01910421
#	Creating user name:	WinNT
#	Creation time:	15. 06. 2019 19:55

#	Modifying user name:	WinNT
#	Modification time:	15. 06. 2019 19:55

#	Program:	/corina/corina34_cracker 3.40 0067  02.08.2006

@<TRIPOS>MOLECULE
ASD01910421
  47   49    0    0    0
SMALL
NO_CHARGES


@<TRIPOS>ATOM
   1 C1            -0.4859     2.2099     0.9776 C.3     
   2 N2            -0.5047     0.8627     0.4022 N.am    
   3 C3            -1.6497     0.1519     0.3883 C.2     
   4 O4            -1.6670    -1.0862    -0.1405 O.3     
   5 O5            -2.6663     0.6283     0.8529 O.2     
   6 C6            -3.0519    -2.5986     1.1765 C.3     
   7 C7            -2.9350    -1.7934    -0.1215 C.3     
   8 C8            -3.0061    -2.7468    -1.3166 C.3     
   9 C9            -4.3555    -3.4686    -1.3159 C.3     
  10 C10           -4.4886    -4.2928    -0.0315 C.3     
  11 N11           -4.2770    -3.4079     1.1222 N.am    
  12 C12           -5.1896    -3.3395     2.1117 C.2     
  13 O13           -4.9716    -2.6565     3.0934 O.2     
  14 C14           -6.4546    -4.0946     2.0032 C.ar    
  15 C15           -6.4341    -5.4544     1.6860 C.ar    
  16 C16           -7.6174    -6.1542     1.5860 C.ar    
  17 C17           -8.8267    -5.5103     1.7996 C.ar    
  18 C18           -8.8528    -4.1601     2.1143 C.ar    
  19 C19           -7.6751    -3.4523     2.2230 C.ar    
  20 F20           -9.9836    -6.2008     1.7004 F       
  21 C21            0.9038     2.7828     0.8697 C.ar    
  22 C22            1.2674     3.5066    -0.2506 C.ar    
  23 C23            2.5414     4.0328    -0.3505 C.ar    
  24 C24            3.4537     3.8350     0.6721 C.ar    
  25 C25            3.0883     3.1099     1.7937 C.ar    
  26 C26            1.8121     2.5891     1.8937 C.ar    
  27 F27            4.6995     4.3486     0.5754 F       
  28 H28           -1.1845     2.8466     0.4348 H       
  29 H29           -0.7784     2.1611     2.0265 H       
  30 H30            0.3069     0.4824     0.0313 H       
  31 H31           -2.1862    -3.2527     1.2800 H       
  32 H32           -3.1014    -1.9173     2.0259 H       
  33 H33           -3.7533    -1.0758    -0.1794 H       
  34 H34           -2.8984    -2.1791    -2.2409 H       
  35 H35           -2.2023    -3.4795    -1.2450 H       
  36 H36           -5.1605    -2.7351    -1.3626 H       
  37 H37           -4.4148    -4.1300    -2.1803 H       
  38 H38           -5.4860    -4.7293     0.0209 H       
  39 H39           -3.7400    -5.0850    -0.0265 H       
  40 H40           -5.4928    -5.9569     1.5191 H       
  41 H41           -7.6027    -7.2058     1.3405 H       
  42 H42           -9.7975    -3.6633     2.2794 H       
  43 H43           -7.6965    -2.4008     2.4685 H       
  44 H44            0.5558     3.6605    -1.0483 H       
  45 H45            2.8253     4.5979    -1.2259 H       
  46 H46            3.7991     2.9549     2.5919 H       
  47 H47            1.5269     2.0235     2.7684 H       
@<TRIPOS>BOND
   1    1    2 1
   2    1   21 1
   3    1   28 1
   4    1   29 1
   5    2    3 am
   6    2   30 1
   7    3    4 1
   8    3    5 2
   9    4    7 1
  10    6    7 1
  11    6   11 1
  12    6   31 1
  13    6   32 1
  14    7    8 1
  15    7   33 1
  16    8    9 1
  17    8   34 1
  18    8   35 1
  19    9   10 1
  20    9   36 1
  21    9   37 1
  22   10   11 1
  23   10   38 1
  24   10   39 1
  25   11   12 am
  26   12   13 2
  27   12   14 1
  28   14   15 ar
  29   14   19 ar
  30   15   16 ar
  31   15   40 1
  32   16   17 ar
  33   16   41 1
  34   17   18 ar
  35   17   20 1
  36   18   19 ar
  37   18   42 1
  38   19   43 1
  39   21   22 ar
  40   21   26 ar
  41   22   23 ar
  42   22   44 1
  43   23   24 ar
  44   23   45 1
  45   24   25 ar
  46   24   27 1
  47   25   26 ar
  48   25   46 1
  49   26   47 1

#	End of record

