#	Name: ASD07932140
#	Creating user name:	WinNT
#	Creation time:	15. 06. 2019 21:14

#	Modifying user name:	WinNT
#	Modification time:	15. 06. 2019 21:14

#	Program:	/corina/corina34_cracker 3.40 0067  02.08.2006

@<TRIPOS>MOLECULE
ASD07932140
  44   46    0    0    0
SMALL
NO_CHARGES


@<TRIPOS>ATOM
   1 F1            -4.0260    -5.8285     7.5921 F       
   2 N2            -0.0298     1.4799     0.0242 N.pl3   
   3 C3            -0.0035     0.0135     0.0142 C.3     
   4 C4             0.7667    -0.4872     1.2438 C.3     
   5 S5             2.4266     0.2603     1.2215 S.o2    
   6 N6             2.0977     1.8773     0.9893 N.am    
   7 C7             1.1541     2.1889     0.0207 C.2     
   8 C8             2.7714     2.9184     1.7691 C.3     
   9 N9             1.3787     3.1200    -0.8633 N.2     
  10 O10            3.0249     0.1985     2.5089 O.2     
  11 O11            3.1400    -0.1303     0.0563 O.2     
  12 C12           -1.4141    -0.5153     0.0542 C.ar    
  13 C13            0.6909    -0.4764    -1.2581 C.3     
  14 C14           -2.2944    -0.1857    -0.9571 C.ar    
  15 C15           -3.5926    -0.6763    -0.9151 C.ar    
  16 C16           -3.9591    -1.4837     0.1469 C.ar    
  17 C17           -3.0202    -1.7748     1.1307 C.ar    
  18 N18           -1.7903    -1.2917     1.0524 N.ar    
  19 N19           -3.3758    -2.5864     2.2056 N.am    
  20 C20           -2.4448    -2.9578     3.1065 C.2     
  21 C21           -2.8421    -3.7226     4.3077 C.ar    
  22 O22           -1.2784    -2.6639     2.9315 O.2     
  23 N23           -4.1182    -4.0409     4.4935 N.ar    
  24 C24           -4.5141    -4.7194     5.5467 C.ar    
  25 C25           -3.6053    -5.1322     6.5135 C.ar    
  26 C26           -2.2615    -4.8218     6.3604 C.ar    
  27 C27           -1.8716    -4.1095     5.2349 C.ar    
  28 F28           -0.5739    -3.7857     5.0442 F       
  29 H29           -0.8779     1.9506     0.0293 H       
  30 H30            0.2422    -0.1903     2.1520 H       
  31 H31            0.8523    -1.5732     1.2067 H       
  32 H32            3.6817     3.2261     1.2545 H       
  33 H33            2.1083     3.7766     1.8789 H       
  34 H34            3.0255     2.5273     2.7543 H       
  35 H35            0.7078     3.3247    -1.5333 H       
  36 H36            1.7116    -0.0948    -1.2848 H       
  37 H37            0.7101    -1.5662    -1.2649 H       
  38 H38            0.1457    -0.1171    -2.1309 H       
  39 H39           -1.9766     0.4474    -1.7723 H       
  40 H40           -4.3004    -0.4329    -1.6937 H       
  41 H41           -4.9608    -1.8822     0.2113 H       
  42 H42           -4.2935    -2.8843     2.3056 H       
  43 H43           -5.5607    -4.9593     5.6629 H       
  44 H44           -1.5355    -5.1309     7.0978 H       
@<TRIPOS>BOND
   1    1   25 1
   2    2    3 1
   3    2    7 1
   4    2   29 1
   5    3    4 1
   6    3   12 1
   7    3   13 1
   8    4    5 1
   9    4   30 1
  10    4   31 1
  11    5    6 am
  12    5   10 2
  13    5   11 2
  14    6    7 1
  15    6    8 1
  16    7    9 2
  17    8   32 1
  18    8   33 1
  19    8   34 1
  20    9   35 1
  21   12   14 ar
  22   12   18 ar
  23   13   36 1
  24   13   37 1
  25   13   38 1
  26   14   15 ar
  27   14   39 1
  28   15   16 ar
  29   15   40 1
  30   16   17 ar
  31   16   41 1
  32   17   18 ar
  33   17   19 1
  34   19   20 am
  35   19   42 1
  36   20   21 1
  37   20   22 2
  38   21   23 ar
  39   21   27 ar
  40   23   24 ar
  41   24   25 ar
  42   24   43 1
  43   25   26 ar
  44   26   27 ar
  45   26   44 1
  46   27   28 1

#	End of record

