#	Name: ASD01418028
#	Creating user name:	WinNT
#	Creation time:	15. 06. 2019 19:20

#	Modifying user name:	WinNT
#	Modification time:	15. 06. 2019 19:20

#	Program:	/corina/corina34_cracker 3.40 0067  02.08.2006

@<TRIPOS>MOLECULE
ASD01418028
  75   79    0    0    0
SMALL
NO_CHARGES


@<TRIPOS>ATOM
   1 C1             0.1174     1.1666    -0.1335 C.3     
   2 N2             0.2299    -0.2698     0.1485 N.pl3   
   3 C3             0.7486    -0.8083     1.3033 C.2     
   4 C4             1.2181    -0.0347     2.4692 C.ar    
   5 C5             1.8689     1.2023     2.3286 C.ar    
   6 C6             2.2298     1.7692     1.0366 C.2     
   7 C7             1.4943     1.7714    -0.0776 C.2     
   8 C8             0.9920    -0.5604     3.7460 C.ar    
   9 C9             1.3686     0.1447     4.8666 C.ar    
  10 C10            1.9736     1.3910     4.7368 C.ar    
  11 C11            2.2219     1.9183     3.4852 C.ar    
  12 C12           -0.1404    -1.2919    -0.6832 C.ar    
  13 C13            0.1834    -2.5103    -0.0276 C.ar    
  14 C14            0.7427    -2.1703     1.2123 C.2     
  15 C15           -0.7226    -1.2931    -1.9430 C.ar    
  16 C16           -0.9678    -2.5437    -2.5249 C.ar    
  17 C17           -0.6430    -3.7386    -1.8721 C.ar    
  18 C18           -0.0695    -3.7538    -0.6302 C.ar    
  19 C19            1.2463    -3.1340     2.2557 C.3     
  20 C20            0.1010    -4.0438     2.7047 C.3     
  21 C21            2.3714    -3.9850     1.6634 C.3     
  22 C22            2.8826    -4.9634     2.7227 C.3     
  23 C23            1.7374    -5.8732     3.1717 C.3     
  24 C24            0.6123    -5.0222     3.7641 C.3     
  25 O25            2.3215     2.0925     5.8471 O.3     
  26 C26            2.0365     1.4899     7.1110 C.3     
  27 C27           -1.5855    -2.6029    -3.8621 C.2     
  28 O28           -1.8746    -1.5760    -4.4439 O.2     
  29 O29           -1.8296    -3.7960    -4.4394 O.3     
  30 C30            2.0455     2.3825    -1.2852 C.2     
  31 O31            1.7119     3.5080    -1.6039 O.2     
  32 O32            2.9244     1.6982    -2.0466 O.3     
  33 C33            3.4228     2.3568    -3.2128 C.3     
  34 C34            3.5829     2.4266     0.9476 C.3     
  35 C35           -2.4397    -3.7783    -5.7569 C.3     
  36 C36           -1.5282    -3.0291    -6.7310 C.3     
  37 C37           -2.6384    -5.2142    -6.2462 C.3     
  38 C38           -3.7953    -3.0729    -5.6817 C.3     
  39 H39           -0.3080     1.3135    -1.1262 H       
  40 H40           -0.5212     1.6383     0.6134 H       
  41 H41            0.5188    -1.5252     3.8530 H       
  42 H42            1.1940    -0.2700     5.8484 H       
  43 H43            2.6902     2.8872     3.3945 H       
  44 H44           -0.9751    -0.3738    -2.4504 H       
  45 H45           -0.8513    -4.6772    -2.3640 H       
  46 H46            0.1777    -4.6811    -0.1347 H       
  47 H47            1.6248    -2.5767     3.1126 H       
  48 H48           -0.7005    -3.4376     3.1267 H       
  49 H49           -0.2775    -4.6011     1.8479 H       
  50 H50            1.9928    -4.5423     0.8066 H       
  51 H51            3.1873    -3.3368     1.3435 H       
  52 H52            3.6842    -5.5696     2.3007 H       
  53 H53            3.2612    -4.4061     3.5796 H       
  54 H54            1.3588    -6.4305     2.3149 H       
  55 H55            2.1016    -6.5702     3.9264 H       
  56 H56            0.9908    -4.4649     4.6209 H       
  57 H57           -0.2036    -5.6704     4.0839 H       
  58 H58            0.9638     1.3175     7.1977 H       
  59 H59            2.5646     0.5394     7.1877 H       
  60 H60            2.3639     2.1530     7.9118 H       
  61 H61            2.5919     2.6030    -3.8740 H       
  62 H62            3.9382     3.2718    -2.9210 H       
  63 H63            4.1182     1.6981    -3.7329 H       
  64 H64            4.3090     1.7124     0.5592 H       
  65 H65            3.5260     3.2864     0.2800 H       
  66 H66            3.8925     2.7565     1.9393 H       
  67 H67           -0.5625    -3.5316    -6.7845 H       
  68 H68           -1.9862    -3.0158    -7.7200 H       
  69 H69           -1.3867    -2.0061    -6.3823 H       
  70 H70           -3.2877    -5.7480    -5.5522 H       
  71 H71           -3.0964    -5.2010    -7.2352 H       
  72 H72           -1.6726    -5.7168    -6.2997 H       
  73 H73           -3.6538    -2.0499    -5.3331 H       
  74 H74           -4.2533    -3.0597    -6.6707 H       
  75 H75           -4.4446    -3.6067    -4.9878 H       
@<TRIPOS>BOND
   1    1    2 1
   2    1    7 1
   3    1   39 1
   4    1   40 1
   5    2    3 1
   6    2   12 1
   7    3    4 1
   8    3   14 2
   9    4    5 ar
  10    4    8 ar
  11    5    6 1
  12    5   11 ar
  13    6    7 2
  14    6   34 1
  15    7   30 1
  16    8    9 ar
  17    8   41 1
  18    9   10 ar
  19    9   42 1
  20   10   11 ar
  21   10   25 1
  22   11   43 1
  23   12   13 ar
  24   12   15 ar
  25   13   14 1
  26   13   18 ar
  27   14   19 1
  28   15   16 ar
  29   15   44 1
  30   16   17 ar
  31   16   27 1
  32   17   18 ar
  33   17   45 1
  34   18   46 1
  35   19   20 1
  36   19   21 1
  37   19   47 1
  38   20   24 1
  39   20   48 1
  40   20   49 1
  41   21   22 1
  42   21   50 1
  43   21   51 1
  44   22   23 1
  45   22   52 1
  46   22   53 1
  47   23   24 1
  48   23   54 1
  49   23   55 1
  50   24   56 1
  51   24   57 1
  52   25   26 1
  53   26   58 1
  54   26   59 1
  55   26   60 1
  56   27   28 2
  57   27   29 1
  58   29   35 1
  59   30   31 2
  60   30   32 1
  61   32   33 1
  62   33   61 1
  63   33   62 1
  64   33   63 1
  65   34   64 1
  66   34   65 1
  67   34   66 1
  68   35   36 1
  69   35   37 1
  70   35   38 1
  71   36   67 1
  72   36   68 1
  73   36   69 1
  74   37   70 1
  75   37   71 1
  76   37   72 1
  77   38   73 1
  78   38   74 1
  79   38   75 1

#	End of record

