#	Name: ASD01208760
#	Creating user name:	WinNT
#	Creation time:	15. 06. 2019 19:10

#	Modifying user name:	WinNT
#	Modification time:	15. 06. 2019 19:10

#	Program:	/corina/corina34_cracker 3.40 0067  02.08.2006

@<TRIPOS>MOLECULE
ASD01208760
  33   33    0    0    0
SMALL
NO_CHARGES


@<TRIPOS>ATOM
   1 C1            -0.0237     1.2895    -1.2558 C.2     
   2 C2            -0.0017    -0.1237    -0.8253 C.ar    
   3 C3            -1.1988    -0.8094    -0.6126 C.ar    
   4 C4            -1.1734    -2.1338    -0.2090 C.ar    
   5 C5             0.0397    -2.7793    -0.0160 C.ar    
   6 C6             1.2318    -2.1018    -0.2261 C.ar    
   7 C7             1.2159    -0.7786    -0.6355 C.ar    
   8 O8             1.0191     1.8845    -1.4404 O.2     
   9 O9            -1.2002     1.9165    -1.4491 O.3     
  10 O10            2.4170    -2.7390    -0.0356 O.3     
  11 C11            4.7258    -2.5939     0.6636 C.3     
  12 C12            3.6034    -1.9512    -0.1537 C.3     
  13 C13            4.0215    -1.8760    -1.6235 C.3     
  14 O14            5.0580    -3.8643     0.1001 O.3     
  15 C15            6.1017    -4.5524     0.7925 C.3     
  16 O16           -2.3383    -2.8023    -0.0013 O.3     
  17 C17           -1.1458     3.3045    -1.8719 C.3     
  18 H18           -2.1433    -0.3077    -0.7623 H       
  19 H19            0.0558    -3.8122     0.2991 H       
  20 H20            2.1445    -0.2532    -0.8032 H       
  21 H21            5.6037    -1.9479     0.6462 H       
  22 H22            4.3943    -2.7286     1.6932 H       
  23 H23            3.4108    -0.9459     0.2211 H       
  24 H24            4.9264    -1.2751    -1.7136 H       
  25 H25            4.2141    -2.8813    -1.9983 H       
  26 H26            3.2219    -1.4182    -2.2058 H       
  27 H27            6.2944    -5.5071     0.3033 H       
  28 H28            7.0080    -3.9470     0.7778 H       
  29 H29            5.7986    -4.7277     1.8248 H       
  30 H30           -2.6784    -3.2533    -0.7861 H       
  31 H31           -2.1591     3.6881    -1.9908 H       
  32 H32           -0.6204     3.8931    -1.1198 H       
  33 H33           -0.6170     3.3743    -2.8225 H       
@<TRIPOS>BOND
   1    1    2 1
   2    1    8 2
   3    1    9 1
   4    2    3 ar
   5    2    7 ar
   6    3    4 ar
   7    3   18 1
   8    4    5 ar
   9    4   16 1
  10    5    6 ar
  11    5   19 1
  12    6    7 ar
  13    6   10 1
  14    7   20 1
  15    9   17 1
  16   10   12 1
  17   11   12 1
  18   11   14 1
  19   11   21 1
  20   11   22 1
  21   12   13 1
  22   12   23 1
  23   13   24 1
  24   13   25 1
  25   13   26 1
  26   14   15 1
  27   15   27 1
  28   15   28 1
  29   15   29 1
  30   16   30 1
  31   17   31 1
  32   17   32 1
  33   17   33 1

#	End of record

