#	Name: ASD01815175
#	Creating user name:	WinNT
#	Creation time:	15. 06. 2019 19:33

#	Modifying user name:	WinNT
#	Modification time:	15. 06. 2019 19:33

#	Program:	/corina/corina34_cracker 3.40 0067  02.08.2006

@<TRIPOS>MOLECULE
ASD01815175
  39   42    0    0    0
SMALL
NO_CHARGES


@<TRIPOS>ATOM
   1 C1            -0.0167     1.3820     0.0096 C.ar    
   2 C2             0.0021    -0.0041     0.0020 C.ar    
   3 C3             1.1959    -0.6932    -0.0127 C.ar    
   4 C4             2.4016     0.0019    -0.0200 C.ar    
   5 C5             2.3831     1.4075    -0.0128 C.ar    
   6 C6             1.1665     2.0939     0.0022 C.ar    
   7 N7             3.6010    -0.6771    -0.0337 N.pl3   
   8 C8             4.7870    -0.0549    -0.0404 C.2     
   9 C9             4.8957     1.3208    -0.0340 C.2     
  10 C10            3.6667     2.1313    -0.0207 C.2     
  11 C11            3.5775    -2.1419    -0.0409 C.3     
  12 H12            1.1956    -1.7731    -0.0181 H       
  13 O13            3.7091     3.3491    -0.0150 O.2     
  14 C14            6.2161     1.9660    -0.0412 C.2     
  15 O15            6.3092     3.3109    -0.0348 O.3     
  16 O16            7.2244     1.2870    -0.0529 O.2     
  17 C17            3.5572    -2.6371    -1.4640 C.ar    
  18 N18            2.4058    -2.7374    -2.0997 N.ar    
  19 C19            2.3329    -3.1643    -3.3436 C.ar    
  20 C20            3.4870    -3.5293    -4.0372 C.ar    
  21 C21            4.7241    -3.4336    -3.3892 C.ar    
  22 C22            4.7471    -2.9736    -2.0844 C.ar    
  23 F23            1.1476     3.4448     0.0091 F       
  24 C24            3.4049    -4.0095    -5.4333 C.2     
  25 S25            1.9226    -4.1807    -6.3700 S.3     
  26 C26            2.8633    -4.7603    -7.7432 C.2     
  27 C27            4.1532    -4.7731    -7.3908 C.2     
  28 N28            4.4171    -4.3683    -6.1699 N.2     
  29 H29           -0.9604     1.9071     0.0170 H       
  30 H30           -0.9295    -0.5505     0.0080 H       
  31 H31            5.6884    -0.6497    -0.0508 H       
  32 H32            4.4660    -2.5220     0.4634 H       
  33 H33            2.6863    -2.4936     0.4789 H       
  34 H34            7.1990     3.6894    -0.0400 H       
  35 H35            1.3714    -3.2328    -3.8306 H       
  36 H36            5.6375    -3.7081    -3.8959 H       
  37 H37            5.6833    -2.8864    -1.5530 H       
  38 H38            2.4663    -5.0549    -8.7035 H       
  39 H39            4.9300    -5.0928    -8.0696 H       
@<TRIPOS>BOND
   1    1    2 ar
   2    1    6 ar
   3    1   29 1
   4    2    3 ar
   5    2   30 1
   6    3    4 ar
   7    3   12 1
   8    4    5 ar
   9    4    7 1
  10    5    6 ar
  11    5   10 1
  12    6   23 1
  13    7    8 1
  14    7   11 1
  15    8    9 2
  16    8   31 1
  17    9   10 1
  18    9   14 1
  19   10   13 2
  20   11   17 1
  21   11   32 1
  22   11   33 1
  23   14   15 1
  24   14   16 2
  25   15   34 1
  26   17   18 ar
  27   17   22 ar
  28   18   19 ar
  29   19   20 ar
  30   19   35 1
  31   20   21 ar
  32   20   24 1
  33   21   22 ar
  34   21   36 1
  35   22   37 1
  36   24   25 1
  37   24   28 2
  38   25   26 1
  39   26   27 2
  40   26   38 1
  41   27   28 1
  42   27   39 1

#	End of record

