#	Name: ASD02500768
#	Creating user name:	WinNT
#	Creation time:	15. 06. 2019 20:23

#	Modifying user name:	WinNT
#	Modification time:	15. 06. 2019 20:23

#	Program:	/corina/corina34_cracker 3.40 0067  02.08.2006

@<TRIPOS>MOLECULE
ASD02500768
  44   46    0    0    0
SMALL
NO_CHARGES


@<TRIPOS>ATOM
   1 O1            -0.0164     1.3569     0.0095 O.3     
   2 C2             0.0021    -0.0041     0.0020 C.ar    
   3 C3             1.1496    -0.6980    -0.3644 C.ar    
   4 O4             2.2825    -0.0325    -0.7194 O.3     
   5 C5             2.1357     1.3497    -1.0629 C.3     
   6 C6             1.2537     2.0177     0.0009 C.3     
   7 C7             1.1451    -2.0846    -0.3687 C.ar    
   8 C8             0.0032    -2.7746    -0.0070 C.ar    
   9 C9            -1.1371    -2.0847     0.3592 C.ar    
  10 C10           -1.1397    -0.7023     0.3645 C.ar    
  11 S11            0.0010    -4.5366    -0.0137 S.o2    
  12 O12           -1.3555    -4.9357    -0.1538 O.2     
  13 O13            1.0256    -4.9357    -0.9138 O.2     
  14 N14            0.4814    -5.0330     1.4914 N.am    
  15 C15           -0.3527    -4.7410     2.6599 C.3     
  16 C16            0.1005    -5.6048     3.8386 C.3     
  17 S17           -0.7286    -6.3407     6.3055 S.o2    
  18 O18           -1.5995    -5.7698     7.2724 O.2     
  19 O19           -0.9008    -7.6502     5.7813 O.2     
  20 N20           -0.7335    -5.3129     5.0071 N.am    
  21 C21            0.8888    -6.2925     7.0027 C.ar    
  22 C22            1.1896    -5.3720     7.9917 C.ar    
  23 C23            2.4612    -5.3350     8.5389 C.ar    
  24 C24            3.4297    -6.2168     8.0978 C.ar    
  25 C25            3.1305    -7.1363     7.1104 C.ar    
  26 C26            1.8581    -7.1789     6.5658 C.ar    
  27 F27            1.5641    -8.0819     5.6048 F       
  28 F28            0.2432    -4.5096     8.4227 F       
  29 H29            3.1142     1.8295    -1.0831 H       
  30 H30            1.6625     1.4372    -2.0409 H       
  31 H31            1.1182     3.0714    -0.2428 H       
  32 H32            1.7236     1.9238     0.9800 H       
  33 H33            2.0346    -2.6260    -0.6551 H       
  34 H34           -2.0275    -2.6266     0.6418 H       
  35 H35           -2.0319    -0.1657     0.6516 H       
  36 H36            1.3150    -5.5171     1.5993 H       
  37 H37           -0.2544    -3.6877     2.9224 H       
  38 H38           -1.3944    -4.9618     2.4270 H       
  39 H39            0.0022    -6.6582     3.5761 H       
  40 H40            1.1422    -5.3841     4.0715 H       
  41 H41           -1.2887    -4.5175     5.0202 H       
  42 H42            2.6962    -4.6166     9.3103 H       
  43 H43            4.4212    -6.1870     8.5249 H       
  44 H44            3.8883    -7.8247     6.7663 H       
@<TRIPOS>BOND
   1    1    2 1
   2    1    6 1
   3    2    3 ar
   4    2   10 ar
   5    3    4 1
   6    3    7 ar
   7    4    5 1
   8    5    6 1
   9    5   29 1
  10    5   30 1
  11    6   31 1
  12    6   32 1
  13    7    8 ar
  14    7   33 1
  15    8    9 ar
  16    8   11 1
  17    9   10 ar
  18    9   34 1
  19   10   35 1
  20   11   12 2
  21   11   13 2
  22   11   14 am
  23   14   15 1
  24   14   36 1
  25   15   16 1
  26   15   37 1
  27   15   38 1
  28   16   20 1
  29   16   39 1
  30   16   40 1
  31   17   18 2
  32   17   19 2
  33   17   20 am
  34   17   21 1
  35   20   41 1
  36   21   22 ar
  37   21   26 ar
  38   22   23 ar
  39   22   28 1
  40   23   24 ar
  41   23   42 1
  42   24   25 ar
  43   24   43 1
  44   25   26 ar
  45   25   44 1
  46   26   27 1

#	End of record

