#	Name: ASD01350012
#	Creating user name:	WinNT
#	Creation time:	15. 06. 2019 19:16

#	Modifying user name:	WinNT
#	Modification time:	15. 06. 2019 19:16

#	Program:	/corina/corina34_cracker 3.40 0067  02.08.2006

@<TRIPOS>MOLECULE
ASD01350012
  62   67    0    0    0
SMALL
NO_CHARGES


@<TRIPOS>ATOM
   1 C1            -0.0332     1.6251     0.2493 C.3     
   2 C2            -0.5098     2.7058     1.1370 C.ar    
   3 C3            -1.5780     3.4805     0.9796 C.ar    
   4 C4            -2.7245     3.4338    -0.0080 C.3     
   5 C5            -2.3194     3.2140    -1.4319 C.3     
   6 C6            -1.6127     1.9020    -1.6972 C.ar    
   7 C7            -0.6305     1.2769    -1.0567 C.ar    
   8 C8            -2.1483     1.3035    -2.8621 C.ar    
   9 C9            -1.6451     0.1381    -3.3771 C.ar    
  10 C10           -0.5700    -0.4656    -2.7495 C.ar    
  11 C11           -0.0698     0.1036    -1.6059 C.ar    
  12 C12            0.3253     2.8844     2.2610 C.ar    
  13 C13            0.1029     3.8857     3.1717 C.ar    
  14 C14           -0.9618     4.7454     2.9678 C.ar    
  15 C15           -1.7820     4.5452     1.8888 C.ar    
  16 O16            1.3482     1.8923    -0.0007 O.3     
  17 C17            1.5832     3.0891    -0.7453 C.3     
  18 C18            2.6856     3.9048    -0.0638 C.3     
  19 C19            3.0319     5.1116    -0.9505 C.3     
  20 N20            3.5937     4.5788    -2.2203 N.3     
  21 C21            2.4058     4.0132    -2.9135 C.3     
  22 C22            2.0138     2.7266    -2.1695 C.3     
  23 C23            1.2917     5.0575    -2.6715 C.3     
  24 C24            1.7054     5.7833    -1.3743 C.3     
  25 C25            4.2064     5.6511    -3.0157 C.3     
  26 C26            4.9740     5.0487    -4.1642 C.ar    
  27 C27            4.3449     4.8258    -5.3747 C.ar    
  28 C28            5.0490     4.2732    -6.4281 C.ar    
  29 C29            6.3823     3.9438    -6.2712 C.ar    
  30 C30            7.0117     4.1675    -5.0609 C.ar    
  31 C31            6.3087     4.7242    -4.0088 C.ar    
  32 H32           -0.0486     0.7120     0.8444 H       
  33 H33           -3.3994     2.6299     0.2859 H       
  34 H34           -3.2701     4.3754     0.0533 H       
  35 H35           -3.2132     3.2554    -2.0544 H       
  36 H36           -1.6586     4.0275    -1.7313 H       
  37 H37           -2.9797     1.7799    -3.3603 H       
  38 H38           -2.0812    -0.3031    -4.2611 H       
  39 H39           -0.1332    -1.3676    -3.1518 H       
  40 H40            0.7736    -0.3575    -1.1135 H       
  41 H41            1.1604     2.2154     2.4078 H       
  42 H42            0.7462     4.0006     4.0315 H       
  43 H43           -1.1440     5.5627     3.6499 H       
  44 H44           -2.6092     5.2206     1.7273 H       
  45 H45            0.6670     3.6783    -0.7833 H       
  46 H46            2.3341     4.2541     0.9071 H       
  47 H47            3.5710     3.2830     0.0687 H       
  48 H48            3.7143     5.8025    -0.4554 H       
  49 H49            2.5925     3.8344    -3.9724 H       
  50 H50            2.8690     2.0518    -2.1317 H       
  51 H51            1.1869     2.2421    -2.6887 H       
  52 H52            1.2451     5.7619    -3.5019 H       
  53 H53            0.3298     4.5622    -2.5387 H       
  54 H54            0.9470     5.6448    -0.6037 H       
  55 H55            1.8622     6.8446    -1.5670 H       
  56 H56            3.4267     6.3065    -3.4039 H       
  57 H57            4.8856     6.2270    -2.3871 H       
  58 H58            3.3032     5.0831    -5.4973 H       
  59 H59            4.5573     4.0984    -7.3737 H       
  60 H60            6.9322     3.5114    -7.0940 H       
  61 H61            8.0533     3.9099    -4.9382 H       
  62 H62            6.8005     4.8990    -3.0633 H       
@<TRIPOS>BOND
   1    1    2 1
   2    1   16 1
   3    1    7 1
   4    1   32 1
   5    2    3 ar
   6    2   12 ar
   7    3    4 1
   8    3   15 ar
   9    4    5 1
  10    4   33 1
  11    4   34 1
  12    5    6 1
  13    5   35 1
  14    5   36 1
  15    6    7 ar
  16    6    8 ar
  17    7   11 ar
  18    8    9 ar
  19    8   37 1
  20    9   10 ar
  21    9   38 1
  22   10   11 ar
  23   10   39 1
  24   11   40 1
  25   12   13 ar
  26   12   41 1
  27   13   14 ar
  28   13   42 1
  29   14   15 ar
  30   14   43 1
  31   15   44 1
  32   16   17 1
  33   17   18 1
  34   17   22 1
  35   17   45 1
  36   18   19 1
  37   18   46 1
  38   18   47 1
  39   19   20 1
  40   19   24 1
  41   19   48 1
  42   20   21 1
  43   20   25 1
  44   21   22 1
  45   21   23 1
  46   21   49 1
  47   22   50 1
  48   22   51 1
  49   23   24 1
  50   23   52 1
  51   23   53 1
  52   24   54 1
  53   24   55 1
  54   25   26 1
  55   25   56 1
  56   25   57 1
  57   26   27 ar
  58   26   31 ar
  59   27   28 ar
  60   27   58 1
  61   28   29 ar
  62   28   59 1
  63   29   30 ar
  64   29   60 1
  65   30   31 ar
  66   30   61 1
  67   31   62 1

#	End of record

