#	Name: ASD03090117
#	Creating user name:	WinNT
#	Creation time:	15. 06. 2019 20:28

#	Modifying user name:	WinNT
#	Modification time:	15. 06. 2019 20:28

#	Program:	/corina/corina34_cracker 3.40 0067  02.08.2006

@<TRIPOS>MOLECULE
ASD03090117
  45   47    0    0    0
SMALL
NO_CHARGES


@<TRIPOS>ATOM
   1 C1            -0.0186     1.5024     0.0154 C.2     
   2 C2             0.0014    -0.0045     0.0123 C.3     
   3 O3             1.0237     2.1227     0.0093 O.2     
   4 N4            -1.1946     2.1607     0.0195 N.am    
   5 C5            -1.2153     3.5574     0.1329 C.ar    
   6 C6            -2.1839     4.2939    -0.5363 C.ar    
   7 C7            -2.2048     5.6696    -0.4248 C.ar    
   8 C8            -1.2567     6.3175     0.3575 C.ar    
   9 C9            -0.2879     5.5802     1.0273 C.ar    
  10 C10           -0.2708     4.2041     0.9191 C.ar    
  11 S11           -1.2824     8.0736     0.4997 S.3     
  12 C12            0.1193     8.4145     1.5995 C.3     
  13 F13           -0.0833     7.7727     2.8260 F       
  14 F14            1.2978     7.9397     1.0139 F       
  15 C15            1.4287    -0.4880     0.0013 C.ar    
  16 C16            2.0905    -0.7116     1.1947 C.ar    
  17 C17            3.3986    -1.1547     1.1881 C.ar    
  18 C18            4.0493    -1.3757    -0.0191 C.ar    
  19 C19            3.3815    -1.1500    -1.2160 C.ar    
  20 C20            2.0717    -0.7123    -1.2023 C.ar    
  21 N21            5.3724    -1.8233    -0.0293 N.pl3   
  22 C22            6.0571    -2.0558    -1.3034 C.3     
  23 C23            7.4840    -2.5384    -1.0349 C.3     
  24 C24            8.3294    -2.9501    -2.2419 C.3     
  25 C25            8.6326    -1.6438    -1.5053 C.3     
  26 H26           -0.5013    -0.3764     0.9052 H       
  27 H27           -0.5139    -0.3729    -0.8747 H       
  28 H28           -2.0266     1.6678    -0.0562 H       
  29 H29           -2.9208     3.7903    -1.1443 H       
  30 H30           -2.9577     6.2424    -0.9458 H       
  31 H31            0.4492     6.0833     1.6355 H       
  32 H32            0.4798     3.6306     1.4427 H       
  33 H33            0.2013     9.4893     1.7611 H       
  34 H34            1.5841    -0.5393     2.1329 H       
  35 H35            3.9150    -1.3289     2.1205 H       
  36 H36            3.8846    -1.3208    -2.1563 H       
  37 H37            1.5504    -0.5412    -2.1325 H       
  38 H38            5.8378    -1.9803     0.8071 H       
  39 H39            5.5184    -2.8135    -1.8725 H       
  40 H40            6.0889    -1.1274    -1.8736 H       
  41 H41            7.6256    -3.0943    -0.1081 H       
  42 H42            9.0275    -3.7766    -2.1089 H       
  43 H43            7.8690    -2.8772    -3.2272 H       
  44 H44            8.3717    -0.7115    -2.0060 H       
  45 H45            9.5302    -1.6109    -0.8878 H       
@<TRIPOS>BOND
   1    1    2 1
   2    1    3 2
   3    1    4 am
   4    2   15 1
   5    2   26 1
   6    2   27 1
   7    4    5 1
   8    4   28 1
   9    5    6 ar
  10    5   10 ar
  11    6    7 ar
  12    6   29 1
  13    7    8 ar
  14    7   30 1
  15    8    9 ar
  16    8   11 1
  17    9   10 ar
  18    9   31 1
  19   10   32 1
  20   11   12 1
  21   12   13 1
  22   12   14 1
  23   12   33 1
  24   15   16 ar
  25   15   20 ar
  26   16   17 ar
  27   16   34 1
  28   17   18 ar
  29   17   35 1
  30   18   19 ar
  31   18   21 1
  32   19   20 ar
  33   19   36 1
  34   20   37 1
  35   21   22 1
  36   21   38 1
  37   22   23 1
  38   22   39 1
  39   22   40 1
  40   23   24 1
  41   23   25 1
  42   23   41 1
  43   24   25 1
  44   24   42 1
  45   24   43 1
  46   25   44 1
  47   25   45 1

#	End of record

