#	Name: ASD01150124
#	Creating user name:	WinNT
#	Creation time:	15. 06. 2019 19:03

#	Modifying user name:	WinNT
#	Modification time:	15. 06. 2019 19:03

#	Program:	/corina/corina34_cracker 3.40 0067  02.08.2006

@<TRIPOS>MOLECULE
ASD01150124
  56   60    0    0    0
SMALL
NO_CHARGES


@<TRIPOS>ATOM
   1 N1            -0.0166     1.3763     0.0096 N.pl3   
   2 C2             0.0021    -0.0041     0.0020 C.2     
   3 C3            -1.3262    -0.4109     0.0125 C.2     
   4 N4            -2.0781     0.6927     0.0256 N.2     
   5 C5            -1.3102     1.7524     0.0299 C.2     
   6 C6             1.0206    -0.9813    -0.0125 C.2     
   7 N7             0.6807    -2.2871    -0.0159 N.am    
   8 C8            -0.6087    -2.6667    -0.0061 C.2     
   9 N9            -1.6103    -1.7670     0.0083 N.am    
  10 O10            2.1925    -0.6496    -0.0223 O.2     
  11 C11           -3.0026    -2.2226     0.0187 C.3     
  12 O12           -0.8774    -3.8526    -0.0100 O.2     
  13 C13            1.7328    -3.3064    -0.0310 C.3     
  14 C14            2.1070    -3.6631     1.3845 C.ar    
  15 C15            1.4454    -4.6866     2.0371 C.ar    
  16 C16            1.7881    -5.0142     3.3353 C.ar    
  17 C17            2.7936    -4.3176     3.9819 C.ar    
  18 C18            3.4553    -3.2933     3.3283 C.ar    
  19 C19            3.1155    -2.9704     2.0281 C.ar    
  20 Cl20           3.2242    -4.7281     5.6127 Cl      
  21 C21           -1.7991     3.1779     0.0446 C.3     
  22 C22           -1.9566     3.6481     1.4920 C.3     
  23 C23            1.1490     2.2638     0.0032 C.3     
  24 C24           -3.4739    -2.3894     1.4647 C.3     
  25 O25           -3.4903    -1.1151     2.1173 O.3     
  26 C26           -4.1587    -1.0426     3.3007 C.ar    
  27 C27           -5.0711    -2.0260     3.6637 C.ar    
  28 O28           -5.3134    -3.0872     2.8467 O.3     
  29 C29           -4.8999    -2.9564     1.4822 C.3     
  30 C30           -3.9235     0.0278     4.1510 C.ar    
  31 C31           -4.5960     0.1163     5.3550 C.ar    
  32 C32           -5.5050    -0.8610     5.7153 C.ar    
  33 C33           -5.7439    -1.9302     4.8729 C.ar    
  34 H34           -3.6294    -1.4868    -0.4852 H       
  35 H35           -3.0759    -3.1785    -0.4999 H       
  36 H36            1.3696    -4.1958    -0.5459 H       
  37 H37            2.6081    -2.9174    -0.5512 H       
  38 H38            0.6603    -5.2301     1.5324 H       
  39 H39            1.2710    -5.8136     3.8452 H       
  40 H40            4.2402    -2.7492     3.8325 H       
  41 H41            3.6320    -2.1709     1.5178 H       
  42 H42           -1.0779     3.8146    -0.4679 H       
  43 H43           -2.7616     3.2371    -0.4635 H       
  44 H44           -2.3101     4.6791     1.5026 H       
  45 H45           -2.6777     3.0114     2.0044 H       
  46 H46           -0.9941     3.5888     2.0001 H       
  47 H47            1.4282     2.4894    -1.0259 H       
  48 H48            0.9039     3.1892     0.5244 H       
  49 H49            1.9820     1.7730     0.5065 H       
  50 H50           -2.8024    -3.0651     1.9945 H       
  51 H51           -5.5720    -2.2771     0.9579 H       
  52 H52           -4.9131    -3.9333     0.9988 H       
  53 H53           -3.2138     0.7925     3.8719 H       
  54 H54           -4.4109     0.9503     6.0157 H       
  55 H55           -6.0292    -0.7890     6.6568 H       
  56 H56           -6.4546    -2.6922     5.1566 H       
@<TRIPOS>BOND
   1    1    2 1
   2    1   23 1
   3    1    5 1
   4    2    3 2
   5    2    6 1
   6    3    4 1
   7    3    9 1
   8    4    5 2
   9    5   21 1
  10    6    7 am
  11    6   10 2
  12    7    8 am
  13    7   13 1
  14    8    9 am
  15    8   12 2
  16    9   11 1
  17   11   24 1
  18   11   34 1
  19   11   35 1
  20   13   14 1
  21   13   36 1
  22   13   37 1
  23   14   15 ar
  24   14   19 ar
  25   15   16 ar
  26   15   38 1
  27   16   17 ar
  28   16   39 1
  29   17   18 ar
  30   17   20 1
  31   18   19 ar
  32   18   40 1
  33   19   41 1
  34   21   22 1
  35   21   42 1
  36   21   43 1
  37   22   44 1
  38   22   45 1
  39   22   46 1
  40   23   47 1
  41   23   48 1
  42   23   49 1
  43   24   25 1
  44   24   29 1
  45   24   50 1
  46   25   26 1
  47   26   27 ar
  48   26   30 ar
  49   27   28 1
  50   27   33 ar
  51   28   29 1
  52   29   51 1
  53   29   52 1
  54   30   31 ar
  55   30   53 1
  56   31   32 ar
  57   31   54 1
  58   32   33 ar
  59   32   55 1
  60   33   56 1

#	End of record

