#	Name: ASD01140051
#	Creating user name:	WinNT
#	Creation time:	15. 06. 2019 18:59

#	Modifying user name:	WinNT
#	Modification time:	15. 06. 2019 18:59

#	Program:	/corina/corina34_cracker 3.40 0067  02.08.2006

@<TRIPOS>MOLECULE
ASD01140051
  57   60    0    0    0
SMALL
NO_CHARGES


@<TRIPOS>ATOM
   1 C1            -0.2841     2.1048     0.0838 C.3     
   2 C2            -0.1400     0.5915     0.2568 C.3     
   3 C3             0.7001     0.0243    -0.8890 C.3     
   4 C4             2.0854     0.6745    -0.8781 C.3     
   5 C5             1.9365     2.1876    -1.0562 C.3     
   6 C6             1.1015     2.7540     0.0947 C.3     
   7 C7             2.9220     0.1070    -2.0269 C.3     
   8 C8             2.2242     0.3970    -3.3574 C.3     
   9 C9             2.0760     1.9084    -3.5365 C.3     
  10 C10            1.2326     2.4733    -2.3833 C.3     
  11 C11            1.3374     2.2173    -4.8253 C.3     
  12 C12            1.3074     3.7628    -4.9720 C.3     
  13 C13            0.3750     4.3024    -3.9053 C.3     
  14 C14            1.0015     3.9723    -2.5400 C.3     
  15 C15            2.0435     1.7967    -6.1186 C.3     
  16 C16            1.3999     2.7260    -7.1838 C.3     
  17 C17            0.8773     3.9687    -6.4207 C.3     
  18 C18            1.5001     5.2232    -6.9770 C.2     
  19 C19            0.7858     6.5432    -6.8413 C.3     
  20 O20            2.5715     5.1706    -7.5316 O.2     
  21 C21            2.7134     4.3295    -4.7647 C.3     
  22 H22            3.0600     2.3772    -3.5372 H       
  23 H23            0.3289     1.8052    -4.7922 H       
  24 H24            0.2621     1.9770    -2.3808 H       
  25 C25            3.3198     2.8414    -1.0546 C.3     
  26 H26            2.5779     0.4664     0.0718 H       
  27 O27           -1.4340    -0.0146     0.2441 O.3     
  28 H28           -0.7771     2.3167    -0.8649 H       
  29 H29           -0.8809     2.5088     0.9015 H       
  30 H30            0.3510     0.3796     1.2066 H       
  31 H31            0.8038    -1.0536    -0.7642 H       
  32 H32            0.2079     0.2341    -1.8387 H       
  33 H33            0.9988     3.8323    -0.0269 H       
  34 H34            1.5959     2.5400     1.0423 H       
  35 H35            3.9071     0.5735    -2.0239 H       
  36 H36            3.0297    -0.9703    -1.9003 H       
  37 H37            2.8189    -0.0093    -4.1756 H       
  38 H38            1.2382    -0.0676    -3.3594 H       
  39 H39            0.2719     5.3820    -4.0146 H       
  40 H40           -0.6013     3.8253    -3.9903 H       
  41 H41            0.3344     4.3151    -1.7491 H       
  42 H42            1.9557     4.4916    -2.4503 H       
  43 H43            3.1164     1.9759    -6.0482 H       
  44 H44            1.8403     0.7503    -6.3463 H       
  45 H45            2.1465     3.0253    -7.9194 H       
  46 H46            0.5730     2.2142    -7.6762 H       
  47 H47           -0.2093     4.0238    -6.4878 H       
  48 H48           -0.1580     6.3933    -6.3171 H       
  49 H49            1.4087     7.2370    -6.2768 H       
  50 H50            0.5901     6.9539    -7.8318 H       
  51 H51            3.3912     3.8982    -5.5014 H       
  52 H52            2.6896     5.4128    -4.8832 H       
  53 H53            3.0610     4.0811    -3.7620 H       
  54 H54            3.9140     2.4364    -1.8737 H       
  55 H55            3.2126     3.9187    -1.1814 H       
  56 H56            3.8181     2.6349    -0.1074 H       
  57 H57           -2.0217     0.2981     0.9454 H       
@<TRIPOS>BOND
   1    1    2 1
   2    1    6 1
   3    1   28 1
   4    1   29 1
   5    2    3 1
   6    2   27 1
   7    2   30 1
   8    3    4 1
   9    3   31 1
  10    3   32 1
  11    4    5 1
  12    4    7 1
  13    4   26 1
  14    5    6 1
  15    5   10 1
  16    5   25 1
  17    6   33 1
  18    6   34 1
  19    7    8 1
  20    7   35 1
  21    7   36 1
  22    8    9 1
  23    8   37 1
  24    8   38 1
  25    9   10 1
  26    9   22 1
  27    9   11 1
  28   10   24 1
  29   10   14 1
  30   11   15 1
  31   11   23 1
  32   11   12 1
  33   12   13 1
  34   12   21 1
  35   12   17 1
  36   13   14 1
  37   13   39 1
  38   13   40 1
  39   14   41 1
  40   14   42 1
  41   15   16 1
  42   15   43 1
  43   15   44 1
  44   16   17 1
  45   16   45 1
  46   16   46 1
  47   17   18 1
  48   17   47 1
  49   18   19 1
  50   18   20 2
  51   19   48 1
  52   19   49 1
  53   19   50 1
  54   21   51 1
  55   21   52 1
  56   21   53 1
  57   25   54 1
  58   25   55 1
  59   25   56 1
  60   27   57 1

#	End of record

