#	Name: ASD08178237
#	Creating user name:	WinNT
#	Creation time:	15. 06. 2019 21:18

#	Modifying user name:	WinNT
#	Modification time:	15. 06. 2019 21:18

#	Program:	/corina/corina34_cracker 3.40 0067  02.08.2006

@<TRIPOS>MOLECULE
ASD08178237
  84   87    0    0    0
SMALL
NO_CHARGES


@<TRIPOS>ATOM
   1 C1            -0.0191     1.5027     0.0206 C.ar    
   2 C2             0.0010    -0.0042     0.0164 C.3     
   3 C3            -0.8032    -0.5283     1.2078 C.3     
   4 C4            -0.7827    -2.0582     1.2036 C.3     
   5 C5            -1.5869    -2.5823     2.3950 C.3     
   6 C6            -1.5667    -4.0891     2.3908 C.2     
   7 N7            -0.6919    -4.8431     2.9772 N.2     
   8 N8            -0.8487    -6.0899     2.8557 N.2     
   9 C9            -1.8639    -6.5050     2.1599 C.2     
  10 S10           -2.7346    -5.1431     1.5928 S.3     
  11 N11           -2.1927    -7.8348     1.9198 N.am    
  12 C12           -1.4276    -8.8207     2.4289 C.2     
  13 C13           -1.7839   -10.2617     2.1687 C.3     
  14 O14           -0.4523    -8.5481     3.0963 O.2     
  15 C15           -0.7773   -11.1577     2.8433 C.ar    
  16 C16           -0.9894   -11.5806     4.1419 C.ar    
  17 C17           -0.0660   -12.4026     4.7608 C.ar    
  18 C18            1.0691   -12.8018     4.0807 C.ar    
  19 C19            1.2809   -12.3795     2.7813 C.ar    
  20 C20            0.3556   -11.5613     2.1612 C.ar    
  21 C21            1.1732     2.2126     0.0061 C.ar    
  22 C22            1.1070     3.5972     0.0106 C.ar    
  23 C23           -0.1543     4.1901     0.0295 C.ar    
  24 N24           -1.2375     3.4281     0.0424 N.ar    
  25 N25           -1.1695     2.1465     0.0325 N.ar    
  26 N26           -0.2752     5.5793     0.0353 N.am    
  27 C27           -1.4930     6.1501    -0.0517 C.2     
  28 O28           -2.4747     5.4604    -0.2290 O.2     
  29 C29           -1.6348     7.6454     0.0713 C.3     
  30 C30           -0.8272     8.3270    -1.0351 C.3     
  31 C31           -3.0873     8.0247    -0.0606 C.ar    
  32 C32           -3.7273     8.6798     0.9749 C.ar    
  33 C33           -5.0597     9.0278     0.8539 C.ar    
  34 C34           -5.7519     8.7210    -0.3026 C.ar    
  35 C35           -5.1117     8.0668    -1.3384 C.ar    
  36 C36           -3.7781     7.7227    -1.2192 C.ar    
  37 C37            2.5187   -12.8144     2.0400 C.3     
  38 N38            2.2476   -14.0663     1.3291 N.am    
  39 C39            3.2162   -14.6468     0.5933 C.2     
  40 O40            4.3143   -14.1318     0.5196 O.2     
  41 O41            2.9671   -15.7974    -0.0600 O.3     
  42 C42            4.0569   -16.3658    -0.8330 C.3     
  43 C43            5.2368   -16.6663     0.0935 C.3     
  44 C44            3.5885   -17.6613    -1.4988 C.3     
  45 C45            4.4938   -15.3688    -1.9082 C.3     
  46 H46           -0.4411    -0.3709    -0.9100 H       
  47 H47            1.0307    -0.3540     0.0910 H       
  48 H48           -0.3610    -0.1616     2.1342 H       
  49 H49           -1.8328    -0.1785     1.1333 H       
  50 H50           -1.2248    -2.4249     0.2772 H       
  51 H51            0.2470    -2.4080     1.2781 H       
  52 H52           -1.1447    -2.2156     3.3213 H       
  53 H53           -2.6165    -2.2325     2.3204 H       
  54 H54           -2.9727    -8.0528     1.3860 H       
  55 H55           -2.7776   -10.4677     2.5662 H       
  56 H56           -1.7758   -10.4498     1.0951 H       
  57 H57           -1.8764   -11.2686     4.6733 H       
  58 H58           -0.2314   -12.7325     5.7758 H       
  59 H59            1.7909   -13.4433     4.5644 H       
  60 H60            0.5209   -11.2314     1.1462 H       
  61 H61            2.1245     1.7015    -0.0080 H       
  62 H62            2.0046     4.1977     0.0002 H       
  63 H63            0.5172     6.1348     0.1019 H       
  64 H64           -1.2622     7.9669     1.0438 H       
  65 H65           -1.1999     8.0055    -2.0076 H       
  66 H66           -0.9298     9.4085    -0.9461 H       
  67 H67            0.2234     8.0526    -0.9397 H       
  68 H68           -3.1865     8.9194     1.8785 H       
  69 H69           -5.5599     9.5389     1.6632 H       
  70 H70           -6.7931     8.9922    -0.3968 H       
  71 H71           -5.6526     7.8268    -2.2419 H       
  72 H72           -3.2779     7.2115    -2.0285 H       
  73 H73            2.8026   -12.0437     1.3233 H       
  74 H74            3.3319   -12.9681     2.7493 H       
  75 H75            1.3711   -14.4775     1.3880 H       
  76 H76            4.9256   -17.3766     0.8595 H       
  77 H77            6.0549   -17.0930    -0.4867 H       
  78 H78            5.5705   -15.7434     0.5679 H       
  79 H79            2.7479   -17.4472    -2.1588 H       
  80 H80            4.4066   -18.0880    -2.0791 H       
  81 H81            3.2772   -18.3715    -0.7328 H       
  82 H82            4.8275   -14.4459    -1.4339 H       
  83 H83            5.3119   -15.7956    -2.4885 H       
  84 H84            3.6532   -15.1548    -2.5682 H       
@<TRIPOS>BOND
   1    1    2 1
   2    1   21 ar
   3    1   25 ar
   4    2    3 1
   5    2   46 1
   6    2   47 1
   7    3    4 1
   8    3   48 1
   9    3   49 1
  10    4    5 1
  11    4   50 1
  12    4   51 1
  13    5    6 1
  14    5   52 1
  15    5   53 1
  16    6    7 2
  17    6   10 1
  18    7    8 1
  19    8    9 2
  20    9   10 1
  21    9   11 1
  22   11   12 am
  23   11   54 1
  24   12   13 1
  25   12   14 2
  26   13   15 1
  27   13   55 1
  28   13   56 1
  29   15   16 ar
  30   15   20 ar
  31   16   17 ar
  32   16   57 1
  33   17   18 ar
  34   17   58 1
  35   18   19 ar
  36   18   59 1
  37   19   20 ar
  38   19   37 1
  39   20   60 1
  40   21   22 ar
  41   21   61 1
  42   22   23 ar
  43   22   62 1
  44   23   24 ar
  45   23   26 1
  46   24   25 ar
  47   26   27 am
  48   26   63 1
  49   27   28 2
  50   27   29 1
  51   29   30 1
  52   29   31 1
  53   29   64 1
  54   30   65 1
  55   30   66 1
  56   30   67 1
  57   31   32 ar
  58   31   36 ar
  59   32   33 ar
  60   32   68 1
  61   33   34 ar
  62   33   69 1
  63   34   35 ar
  64   34   70 1
  65   35   36 ar
  66   35   71 1
  67   36   72 1
  68   37   38 1
  69   37   73 1
  70   37   74 1
  71   38   39 am
  72   38   75 1
  73   39   40 2
  74   39   41 1
  75   41   42 1
  76   42   43 1
  77   42   44 1
  78   42   45 1
  79   43   76 1
  80   43   77 1
  81   43   78 1
  82   44   79 1
  83   44   80 1
  84   44   81 1
  85   45   82 1
  86   45   83 1
  87   45   84 1

#	End of record

