#	Name: ASD01816632
#	Creating user name:	WinNT
#	Creation time:	15. 06. 2019 19:35

#	Modifying user name:	WinNT
#	Modification time:	15. 06. 2019 19:35

#	Program:	/corina/corina34_cracker 3.40 0067  02.08.2006

@<TRIPOS>MOLECULE
ASD01816632
  49   54    0    0    0
SMALL
NO_CHARGES


@<TRIPOS>ATOM
   1 C1            -0.0167     1.3813     0.0096 C.ar    
   2 C2             0.0021    -0.0041     0.0020 C.ar    
   3 C3             1.1983    -0.6909    -0.0126 C.ar    
   4 C4             2.4015     0.0059    -0.0203 C.ar    
   5 C5             2.3790     1.4106    -0.0130 C.ar    
   6 C6             1.1662     2.0917     0.0022 C.ar    
   7 N7             3.6052    -0.6771    -0.0345 N.pl3   
   8 C8             4.7970    -0.0585    -0.0420 C.2     
   9 C9             4.8999     1.3103    -0.0365 C.2     
  10 C10            3.6669     2.1302    -0.0214 C.2     
  11 C11            5.9971     2.2731    -0.0424 C.2     
  12 N12            5.4245     3.4962    -0.0321 N.am    
  13 N13            4.0322     3.3800    -0.0196 N.2     
  14 O14            7.1910     2.0232    -0.0539 O.2     
  15 C15            6.1218     4.7006    -0.0338 C.ar    
  16 C16            3.5778    -2.1419    -0.0411 C.3     
  17 C17            3.5555    -2.6375    -1.4641 C.ar    
  18 C18            4.7425    -2.8869    -2.1273 C.ar    
  19 C19            4.7232    -3.3419    -3.4321 C.ar    
  20 C20            3.5144    -3.5478    -4.0752 C.ar    
  21 C21            2.3262    -3.2976    -3.4099 C.ar    
  22 C22            2.3479    -2.8477    -2.1034 C.ar    
  23 F23            3.4944    -3.9921    -5.3509 F       
  24 C24            7.0596     4.9818    -1.0134 C.ar    
  25 C25            5.8910     5.6790     0.9620 C.ar    
  26 C26            6.6255     6.8881     0.9175 C.ar    
  27 N27            7.5204     7.0906    -0.0560 N.ar    
  28 C28            7.7395     6.1930    -0.9879 C.ar    
  29 C29            4.9538     5.4728     1.9840 C.ar    
  30 C30            4.7595     6.4391     2.9247 C.ar    
  31 C31            5.4805     7.6300     2.8839 C.ar    
  32 C32            6.3982     7.8618     1.9056 C.ar    
  33 H33           -0.9602     1.9069     0.0169 H       
  34 H34           -0.9289    -0.5515     0.0079 H       
  35 H35            1.2003    -1.7709    -0.0177 H       
  36 H36            1.1506     3.1715     0.0081 H       
  37 H37            5.6982    -0.6535    -0.0523 H       
  38 H38            4.4655    -2.5241     0.4629 H       
  39 H39            2.6859    -2.4910     0.4793 H       
  40 H40            5.6853    -2.7259    -1.6257 H       
  41 H41            5.6507    -3.5363    -3.9502 H       
  42 H42            1.3827    -3.4578    -3.9105 H       
  43 H43            1.4212    -2.6525    -1.5842 H       
  44 H44            7.2616     4.2626    -1.7934 H       
  45 H45            8.4720     6.3999    -1.7540 H       
  46 H46            4.3888     4.5533     2.0253 H       
  47 H47            4.0370     6.2797     3.7115 H       
  48 H48            5.3089     8.3814     3.6404 H       
  49 H49            6.9487     8.7908     1.8879 H       
@<TRIPOS>BOND
   1    1    2 ar
   2    1    6 ar
   3    1   33 1
   4    2    3 ar
   5    2   34 1
   6    3    4 ar
   7    3   35 1
   8    4    5 ar
   9    4    7 1
  10    5    6 ar
  11    5   10 1
  12    6   36 1
  13    7    8 1
  14    7   16 1
  15    8    9 2
  16    8   37 1
  17    9   10 1
  18    9   11 1
  19   10   13 2
  20   11   12 am
  21   11   14 2
  22   12   13 1
  23   12   15 1
  24   15   24 ar
  25   15   25 ar
  26   16   17 1
  27   16   38 1
  28   16   39 1
  29   17   18 ar
  30   17   22 ar
  31   18   19 ar
  32   18   40 1
  33   19   20 ar
  34   19   41 1
  35   20   21 ar
  36   20   23 1
  37   21   22 ar
  38   21   42 1
  39   22   43 1
  40   24   28 ar
  41   24   44 1
  42   25   26 ar
  43   25   29 ar
  44   26   27 ar
  45   26   32 ar
  46   27   28 ar
  47   28   45 1
  48   29   30 ar
  49   29   46 1
  50   30   31 ar
  51   30   47 1
  52   31   32 ar
  53   31   48 1
  54   32   49 1

#	End of record

