#	Name: ASD02500020
#	Creating user name:	WinNT
#	Creation time:	15. 06. 2019 20:22

#	Modifying user name:	WinNT
#	Modification time:	15. 06. 2019 20:22

#	Program:	/corina/corina34_cracker 3.40 0067  02.08.2006

@<TRIPOS>MOLECULE
ASD02500020
  52   55    0    0    0
SMALL
NO_CHARGES


@<TRIPOS>ATOM
   1 C1            -0.0168     1.3842     0.0097 C.ar    
   2 C2             0.0021    -0.0041     0.0020 C.ar    
   3 C3             1.1941    -0.6934    -0.0131 C.ar    
   4 C4             2.3997     0.0105    -0.0209 C.ar    
   5 C5             2.3767     1.4231    -0.0131 C.ar    
   6 C6             1.1601     2.1012     0.0023 C.ar    
   7 N7             3.5965    -0.6281    -0.0353 N.2     
   8 C8             4.7174     0.0271    -0.0421 C.2     
   9 N9             4.7901     1.3838    -0.0355 N.am    
  10 C10            3.6638     2.1342    -0.0211 C.2     
  11 O11            3.7144     3.3504    -0.0155 O.2     
  12 C12            6.0997     2.0404    -0.0436 C.3     
  13 C13            6.0039    -0.7576    -0.0576 C.3     
  14 C14            5.6882    -2.2546    -0.0622 C.3     
  15 C15            6.5428     2.2767    -1.4888 C.3     
  16 C16            7.8899     2.9522    -1.4971 C.2     
  17 C17            8.1211     4.2715    -1.5858 C.2     
  18 N18            9.4679     4.5119    -1.5617 N.pl3   
  19 C19           10.1538     3.3228    -1.4543 C.ar    
  20 C20            9.1953     2.2940    -1.4036 C.ar    
  21 C21           11.5049     2.9992    -1.3885 C.ar    
  22 C22           11.8881     1.6801    -1.2803 C.ar    
  23 C23           10.9389     0.6685    -1.2367 C.ar    
  24 C24            9.6059     0.9644    -1.2933 C.ar    
  25 C25           10.0878     5.8370    -1.6395 C.3     
  26 O26            9.0529     6.8500    -1.7451 O.3     
  27 C27            9.4567     8.1276    -1.8260 C.2     
  28 C28            8.4394     9.2337    -1.9378 C.3     
  29 O29           10.6359     8.3907    -1.8092 O.2     
  30 Cl30           9.2867    10.8227    -2.0279 Cl      
  31 H31           -0.9619     1.9067     0.0170 H       
  32 H32           -0.9297    -0.5501     0.0084 H       
  33 H33            1.1963    -1.7733    -0.0186 H       
  34 H34            1.1392     3.1810     0.0086 H       
  35 H35            6.0301     2.9961     0.4760 H       
  36 H36            6.8279     1.4050     0.4604 H       
  37 H37            6.5736    -0.5036    -0.9515 H       
  38 H38            6.5897    -0.5125     0.8284 H       
  39 H39            5.1184    -2.5086     0.8316 H       
  40 H40            5.1024    -2.4997    -0.9482 H       
  41 H41            6.6187    -2.8222    -0.0735 H       
  42 H42            6.6123     1.3210    -2.0084 H       
  43 H43            5.8146     2.9121    -1.9929 H       
  44 H44            7.3571     5.0308    -1.6649 H       
  45 H45           12.2511     3.7792    -1.4224 H       
  46 H46           12.9377     1.4308    -1.2294 H       
  47 H47           11.2561    -0.3604    -1.1524 H       
  48 H48            8.8729     0.1720    -1.2584 H       
  49 H49           10.6798     6.0145    -0.7417 H       
  50 H50           10.7339     5.8850    -2.5161 H       
  51 H51            7.8424     9.0887    -2.8382 H       
  52 H52            7.7883     9.2183    -1.0638 H       
@<TRIPOS>BOND
   1    1    2 ar
   2    1    6 ar
   3    1   31 1
   4    2    3 ar
   5    2   32 1
   6    3    4 ar
   7    3   33 1
   8    4    5 ar
   9    4    7 1
  10    5    6 ar
  11    5   10 1
  12    6   34 1
  13    7    8 2
  14    8    9 1
  15    8   13 1
  16    9   10 am
  17    9   12 1
  18   10   11 2
  19   12   15 1
  20   12   35 1
  21   12   36 1
  22   13   14 1
  23   13   37 1
  24   13   38 1
  25   14   39 1
  26   14   40 1
  27   14   41 1
  28   15   16 1
  29   15   42 1
  30   15   43 1
  31   16   17 2
  32   16   20 1
  33   17   18 1
  34   17   44 1
  35   18   19 1
  36   18   25 1
  37   19   20 ar
  38   19   21 ar
  39   20   24 ar
  40   21   22 ar
  41   21   45 1
  42   22   23 ar
  43   22   46 1
  44   23   24 ar
  45   23   47 1
  46   24   48 1
  47   25   26 1
  48   25   49 1
  49   25   50 1
  50   26   27 1
  51   27   28 1
  52   27   29 2
  53   28   30 1
  54   28   51 1
  55   28   52 1

#	End of record

