#	Name: ASD01881223
#	Creating user name:	WinNT
#	Creation time:	15. 06. 2019 19:42

#	Modifying user name:	WinNT
#	Modification time:	15. 06. 2019 19:42

#	Program:	/corina/corina34_cracker 3.40 0067  02.08.2006

@<TRIPOS>MOLECULE
ASD01881223
  43   45    0    0    0
SMALL
NO_CHARGES


@<TRIPOS>ATOM
   1 N1            -0.0158     1.3134     0.0093 N.ar    
   2 C2             0.0021    -0.0041     0.0020 C.ar    
   3 N3             1.1303    -0.6845    -0.0120 N.ar    
   4 C4             2.3038    -0.0593    -0.0198 C.ar    
   5 C5             2.3283     1.3305    -0.0130 C.ar    
   6 C6             1.1162     2.0110     0.0022 C.ar    
   7 C7             3.6354     2.0804    -0.0210 C.3     
   8 O8             4.0365     2.3243    -1.3707 O.3     
   9 C9             5.2018     2.9947    -1.5556 C.ar    
  10 C10            5.6509     3.2654    -2.8450 C.ar    
  11 C11            6.8292     3.9438    -3.0318 C.ar    
  12 C12            7.5848     4.3666    -1.9327 C.ar    
  13 C13            7.1295     4.0922    -0.6387 C.ar    
  14 C14            5.9421     3.4148    -0.4579 C.ar    
  15 C15            7.5813     4.3885    -4.2614 C.3     
  16 N16            8.7851     5.0751    -3.7791 N.am    
  17 C17            8.7826     5.0599    -2.4352 C.2     
  18 O18            9.6468     5.5495    -1.7338 O.2     
  19 Cl19           8.0543     4.6088     0.7366 Cl      
  20 O20            1.0886     3.3661     0.0089 O.3     
  21 C21           -0.1975     3.9887     0.0246 C.3     
  22 C22            9.4605     7.1389    -4.9041 C.3     
  23 C23            9.8192     5.6783    -4.6235 C.3     
  24 O24            3.4596    -0.7671    -0.0338 O.3     
  25 C25            3.3479    -2.1918    -0.0394 C.3     
  26 H26           -0.9347    -0.5415     0.0081 H       
  27 H27            3.5123     3.0306     0.4988 H       
  28 H28            4.3980     1.4867     0.4830 H       
  29 H29            5.0727     2.9416    -3.6977 H       
  30 H30            5.5902     3.2032     0.5411 H       
  31 H31            7.8592     3.5236    -4.8639 H       
  32 H32            6.9689     5.0733    -4.8480 H       
  33 H33           -0.7396     3.6803     0.9185 H       
  34 H34           -0.0767     5.0720     0.0285 H       
  35 H35           -0.7572     3.6887    -0.8613 H       
  36 H36           10.2299     7.5878    -5.5324 H       
  37 H37            8.4999     7.1851    -5.4172 H       
  38 H38            9.3961     7.6846    -3.9627 H       
  39 H39           10.7797     5.6322    -4.1105 H       
  40 H40            9.8835     5.1326    -5.5649 H       
  41 H41            4.3440    -2.6343    -0.0507 H       
  42 H42            2.8155    -2.5180     0.8539 H       
  43 H43            2.7991    -2.5096    -0.9259 H       
@<TRIPOS>BOND
   1    1    2 ar
   2    1    6 ar
   3    2    3 ar
   4    2   26 1
   5    3    4 ar
   6    4    5 ar
   7    4   24 1
   8    5    6 ar
   9    5    7 1
  10    6   20 1
  11    7    8 1
  12    7   27 1
  13    7   28 1
  14    8    9 1
  15    9   10 ar
  16    9   14 ar
  17   10   11 ar
  18   10   29 1
  19   11   12 ar
  20   11   15 1
  21   12   13 ar
  22   12   17 1
  23   13   14 ar
  24   13   19 1
  25   14   30 1
  26   15   16 1
  27   15   31 1
  28   15   32 1
  29   16   17 am
  30   16   23 1
  31   17   18 2
  32   20   21 1
  33   21   33 1
  34   21   34 1
  35   21   35 1
  36   22   23 1
  37   22   36 1
  38   22   37 1
  39   22   38 1
  40   23   39 1
  41   23   40 1
  42   24   25 1
  43   25   41 1
  44   25   42 1
  45   25   43 1

#	End of record

