#	Name: ASD03920007
#	Creating user name:	WinNT
#	Creation time:	15. 06. 2019 20:47

#	Modifying user name:	WinNT
#	Modification time:	15. 06. 2019 20:47

#	Program:	/corina/corina34_cracker 3.40 0067  02.08.2006

@<TRIPOS>MOLECULE
ASD03920007
  60   63    0    0    0
SMALL
NO_CHARGES


@<TRIPOS>ATOM
   1 C1            -0.0179     1.4719     0.0101 C.2     
   2 C2             0.0021    -0.0041     0.0020 C.ar    
   3 C3             1.2210    -0.6879    -0.0133 C.ar    
   4 C4             1.2344    -2.0688    -0.0204 C.ar    
   5 C5             0.0337    -2.7777    -0.0122 C.ar    
   6 C6            -1.1766    -2.0984     0.0025 C.ar    
   7 C7            -1.1969    -0.7203     0.0155 C.ar    
   8 O8             1.0266     2.0941     0.0035 O.2     
   9 N9            -1.1942     2.1298     0.0193 N.am    
  10 C10           -1.2140     3.5946     0.0273 C.3     
  11 C11           -2.5311     4.0901    -0.5734 C.3     
  12 C12           -3.7017     3.5596     0.2567 C.3     
  13 C13           -3.5761     4.0635     1.6959 C.3     
  14 C14           -2.2591     3.5680     2.2966 C.3     
  15 C15           -1.0884     4.0985     1.4665 C.3     
  16 N16           -4.6970     3.5555     2.4907 N.pl3   
  17 N17           -5.9021     4.2208     2.7570 N.2     
  18 N18           -6.6359     3.4548     3.4869 N.2     
  19 C19           -5.9843     2.3039     3.7263 C.2     
  20 C20           -4.7706     2.3561     3.1018 C.2     
  21 C21           -6.4954     1.1736     4.5248 C.2     
  22 O22           -5.8138     0.1779     4.6749 O.2     
  23 N23           -7.7178     1.2446     5.0879 N.am    
  24 C24           -8.3473     0.1964     5.9044 C.3     
  25 C25           -9.7461     0.7082     6.3079 C.3     
  26 C26          -10.0496     1.7790     5.2269 C.3     
  27 C27           -8.6426     2.3888     4.9925 C.3     
  28 O28            0.0484    -4.1356    -0.0192 O.3     
  29 C29           -1.2176    -4.7982    -0.0102 C.3     
  30 O30            2.4187    -2.7373    -0.0357 O.3     
  31 C31            3.6095    -1.9474    -0.0438 C.3     
  32 H32            2.1502    -0.1376    -0.0199 H       
  33 H33           -2.1045    -2.6510     0.0084 H       
  34 H34           -2.1399    -0.1942     0.0318 H       
  35 H35           -2.0275     1.6334     0.0205 H       
  36 H36           -0.3800     3.9726    -0.5640 H       
  37 H37           -2.5458     5.1800    -0.5674 H       
  38 H38           -2.6205     3.7312    -1.5987 H       
  39 H39           -4.6400     3.9126    -0.1712 H       
  40 H40           -3.6869     2.4698     0.2507 H       
  41 H41           -3.5909     5.1534     1.7019 H       
  42 H42           -2.1696     3.9269     3.3219 H       
  43 H43           -2.2443     2.4781     2.2906 H       
  44 H44           -0.1502     3.7455     1.8945 H       
  45 H45           -1.1032     5.1884     1.4725 H       
  46 H46           -4.0142     1.5852     3.0996 H       
  47 H47           -8.4416    -0.7203     5.3223 H       
  48 H48           -7.7486     0.0117     6.7963 H       
  49 H49          -10.4782    -0.0984     6.2680 H       
  50 H50           -9.7206     1.1585     7.3002 H       
  51 H51          -10.4357     1.3179     4.3178 H       
  52 H52          -10.7414     2.5314     5.6056 H       
  53 H53           -8.4136     3.1268     5.7613 H       
  54 H54           -8.5857     2.8410     4.0024 H       
  55 H55           -1.0630    -5.8772    -0.0171 H       
  56 H56           -1.7691    -4.5159     0.8867 H       
  57 H57           -1.7864    -4.5070    -0.8932 H       
  58 H58            3.6373    -1.3228     0.8491 H       
  59 H59            4.4803    -2.6029    -0.0559 H       
  60 H60            3.6193    -1.3139    -0.9308 H       
@<TRIPOS>BOND
   1    1    2 1
   2    1    8 2
   3    1    9 am
   4    2    3 ar
   5    2    7 ar
   6    3    4 ar
   7    3   32 1
   8    4    5 ar
   9    4   30 1
  10    5    6 ar
  11    5   28 1
  12    6    7 ar
  13    6   33 1
  14    7   34 1
  15    9   10 1
  16    9   35 1
  17   10   11 1
  18   10   15 1
  19   10   36 1
  20   11   12 1
  21   11   37 1
  22   11   38 1
  23   12   13 1
  24   12   39 1
  25   12   40 1
  26   13   14 1
  27   13   16 1
  28   13   41 1
  29   14   15 1
  30   14   42 1
  31   14   43 1
  32   15   44 1
  33   15   45 1
  34   16   17 1
  35   16   20 1
  36   17   18 2
  37   18   19 1
  38   19   20 2
  39   19   21 1
  40   20   46 1
  41   21   22 2
  42   21   23 am
  43   23   24 1
  44   23   27 1
  45   24   25 1
  46   24   47 1
  47   24   48 1
  48   25   26 1
  49   25   49 1
  50   25   50 1
  51   26   27 1
  52   26   51 1
  53   26   52 1
  54   27   53 1
  55   27   54 1
  56   28   29 1
  57   29   55 1
  58   29   56 1
  59   29   57 1
  60   30   31 1
  61   31   58 1
  62   31   59 1
  63   31   60 1

#	End of record

