#	Name: ASD01882086
#	Creating user name:	WinNT
#	Creation time:	15. 06. 2019 19:43

#	Modifying user name:	WinNT
#	Modification time:	15. 06. 2019 19:43

#	Program:	/corina/corina34_cracker 3.40 0067  02.08.2006

@<TRIPOS>MOLECULE
ASD01882086
  24   23    0    0    0
SMALL
NO_CHARGES


@<TRIPOS>ATOM
   1 C1             0.0455     0.0546    -0.3196 C.1     
   2 C2            -0.0024     1.4845    -0.2587 C.2     
   3 C3             1.2109     2.2440    -0.3017 C.1     
   4 N4             0.0834    -1.0797    -0.3679 N.1     
   5 N5             2.1733     2.8465    -0.3357 N.1     
   6 C6            -1.2352     2.1400    -0.1631 C.2     
   7 C7            -2.4312     1.4038    -0.2426 C.2     
   8 C8            -3.6217     2.0475    -0.2691 C.2     
   9 O9            -1.2767     3.4804     0.0057 O.3     
  10 C10           -1.7597     3.9614     1.2617 C.3     
  11 N11           -4.7795     1.3367    -0.4143 N.pl3   
  12 C12           -4.7325    -0.1220    -0.5414 C.3     
  13 C13           -6.0679     2.0334    -0.4429 C.3     
  14 H14           -2.3996     0.3250    -0.2826 H       
  15 H15           -3.6563     3.1228    -0.1754 H       
  16 H16           -2.7413     3.5321     1.4620 H       
  17 H17           -1.0679     3.6710     2.0523 H       
  18 H18           -1.8382     5.0481     1.2286 H       
  19 H19           -4.7929    -0.5751     0.4481 H       
  20 H20           -5.5722    -0.4611    -1.1481 H       
  21 H21           -3.7975    -0.4152    -1.0188 H       
  22 H22           -5.9037     3.1056    -0.3355 H       
  23 H23           -6.5670     1.8355    -1.3916 H       
  24 H24           -6.6917     1.6774     0.3770 H       
@<TRIPOS>BOND
   1    1    2 1
   2    1    4 3
   3    2    3 1
   4    2    6 2
   5    3    5 3
   6    6    7 1
   7    6    9 1
   8    7    8 2
   9    7   14 1
  10    8   11 1
  11    8   15 1
  12    9   10 1
  13   10   16 1
  14   10   17 1
  15   10   18 1
  16   11   12 1
  17   11   13 1
  18   12   19 1
  19   12   20 1
  20   12   21 1
  21   13   22 1
  22   13   23 1
  23   13   24 1

#	End of record

