#	Name: ASD02508476
#	Creating user name:	WinNT
#	Creation time:	15. 06. 2019 20:24

#	Modifying user name:	WinNT
#	Modification time:	15. 06. 2019 20:24

#	Program:	/corina/corina34_cracker 3.40 0067  02.08.2006

@<TRIPOS>MOLECULE
ASD02508476
  32   34    0    0    0
SMALL
NO_CHARGES


@<TRIPOS>ATOM
   1 N1            -0.0341     1.3105     0.0308 N.2     
   2 C2             0.0226    -0.0232    -0.1041 C.2     
   3 C3             1.3167    -0.3924    -0.0997 C.2     
   4 N4             2.0566     0.7549     0.0420 N.pl3   
   5 C5             1.1763     1.7888     0.1193 C.2     
   6 C6             3.4473     0.8437     0.0971 C.ar    
   7 N7             4.1050     0.1224     0.9906 N.ar    
   8 N8             4.0768     1.6429    -0.7487 N.ar    
   9 C9             5.3954     1.7516    -0.7245 C.ar    
  10 C10            6.1170     1.0159     0.2008 C.ar    
  11 C11            5.4250     0.1829     1.0698 C.ar    
  12 S12            1.9413    -2.0333    -0.2471 S.o2    
  13 N13            1.9625    -2.4067    -1.8603 N.am    
  14 C14            2.8038    -1.7060    -2.7287 C.ar    
  15 C15            3.5568    -2.3924    -3.6727 C.ar    
  16 C16            4.3875    -1.6974    -4.5296 C.ar    
  17 C17            4.4700    -0.3184    -4.4483 C.ar    
  18 C18            3.7213     0.3679    -3.5085 C.ar    
  19 C19            2.8843    -0.3215    -2.6532 C.ar    
  20 O20            3.2984    -1.9852     0.1715 O.2     
  21 O21            0.9737    -2.8860     0.3494 O.2     
  22 Cl22           6.2793    -0.7612     2.2498 Cl      
  23 Cl23           5.5152     0.5520    -5.5271 Cl      
  24 H24           -0.8245    -0.6864    -0.1993 H       
  25 H25            1.4358     2.8308     0.2343 H       
  26 H26            5.9028     2.4057    -1.4182 H       
  27 H27            7.1939     1.0851     0.2424 H       
  28 H28            1.3910    -3.1118    -2.2025 H       
  29 H29            3.4930    -3.4686    -3.7364 H       
  30 H30            4.9734    -2.2306    -5.2636 H       
  31 H31            3.7882     1.4441    -3.4468 H       
  32 H32            2.3000     0.2147    -1.9201 H       
@<TRIPOS>BOND
   1    1    2 1
   2    1    5 2
   3    2    3 2
   4    2   24 1
   5    3    4 1
   6    3   12 1
   7    4    5 1
   8    4    6 1
   9    5   25 1
  10    6    7 ar
  11    6    8 ar
  12    7   11 ar
  13    8    9 ar
  14    9   10 ar
  15    9   26 1
  16   10   11 ar
  17   10   27 1
  18   11   22 1
  19   12   13 am
  20   12   20 2
  21   12   21 2
  22   13   14 1
  23   13   28 1
  24   14   15 ar
  25   14   19 ar
  26   15   16 ar
  27   15   29 1
  28   16   17 ar
  29   16   30 1
  30   17   18 ar
  31   17   23 1
  32   18   19 ar
  33   18   31 1
  34   19   32 1

#	End of record

