#	Name: ASD01913836
#	Creating user name:	WinNT
#	Creation time:	15. 06. 2019 20:02

#	Modifying user name:	WinNT
#	Modification time:	15. 06. 2019 20:02

#	Program:	/corina/corina34_cracker 3.40 0067  02.08.2006

@<TRIPOS>MOLECULE
ASD01913836
  44   46    0    0    0
SMALL
NO_CHARGES


@<TRIPOS>ATOM
   1 C1            -0.0233     1.4277    -0.0323 C.ar    
   2 C2            -0.0022    -0.0041    -0.0276 C.1     
   3 C3             0.0152    -1.1780    -0.0238 C.1     
   4 C4             0.0363    -2.6098    -0.0191 C.ar    
   5 C5            -1.1323    -3.3384     0.2484 C.ar    
   6 C6             0.1561    -5.3344    -0.0290 C.ar    
   7 N7             1.2412    -4.6188    -0.2836 N.ar    
   8 C8             1.2194    -3.3023    -0.2865 C.ar    
   9 C9            -1.0615    -4.7170     0.2411 C.ar    
  10 N10            0.2332    -6.7251    -0.0385 N.am    
  11 C11           -0.8328    -7.5439    -0.0277 C.2     
  12 C12           -0.3801    -8.9874    -0.0329 C.3     
  13 C13            1.1109    -8.9187     0.3712 C.3     
  14 C14            1.4886    -7.4846    -0.0679 C.3     
  15 O15           -1.9892    -7.1786    -0.0152 O.2     
  16 C16            1.1450     2.1463    -0.2996 C.ar    
  17 C17            1.1170     3.5252    -0.3024 C.ar    
  18 C18           -1.2264     3.4923     0.2186 C.ar    
  19 C19           -1.2137     2.1132     0.2248 C.ar    
  20 C20           -0.0642     4.1972    -0.0413 C.ar    
  21 C21            1.2775    -9.0966     1.8817 C.3     
  22 C22            1.9341    -9.9565    -0.3944 C.3     
  23 O23           -0.5188    -9.5503    -1.3390 O.3     
  24 C24           -1.7765   -10.1897    -1.5658 C.3     
  25 H25           -2.0642    -2.8332     0.4553 H       
  26 H26            2.1248    -2.7527    -0.4979 H       
  27 H27           -1.9413    -5.3099     0.4431 H       
  28 H28           -0.9465    -9.5674     0.6957 H       
  29 H29            1.9062    -7.4961    -1.0746 H       
  30 H30            2.2027    -7.0515     0.6326 H       
  31 H31            2.0677     1.6232    -0.5033 H       
  32 H32            2.0192     4.0819    -0.5085 H       
  33 H33           -2.1455     4.0234     0.4171 H       
  34 H34           -2.1214     1.5644     0.4278 H       
  35 H35           -0.0802     5.2770    -0.0447 H       
  36 H36            0.8788   -10.0664     2.1794 H       
  37 H37            2.3354    -9.0442     2.1391 H       
  38 H38            0.7372    -8.3061     2.4025 H       
  39 H39            1.8527    -9.7670    -1.4648 H       
  40 H40            2.9788    -9.8869    -0.0915 H       
  41 H41            1.5572   -10.9549    -0.1725 H       
  42 H42           -1.9056   -11.0017    -0.8502 H       
  43 H43           -2.5805    -9.4643    -1.4411 H       
  44 H44           -1.8028   -10.5907    -2.5790 H       
@<TRIPOS>BOND
   1    1    2 1
   2    1   16 ar
   3    1   19 ar
   4    2    3 3
   5    3    4 1
   6    4    5 ar
   7    4    8 ar
   8    5    9 ar
   9    5   25 1
  10    6    7 ar
  11    6   10 1
  12    6    9 ar
  13    7    8 ar
  14    8   26 1
  15    9   27 1
  16   10   11 am
  17   10   14 1
  18   11   12 1
  19   11   15 2
  20   12   13 1
  21   12   23 1
  22   12   28 1
  23   13   14 1
  24   13   21 1
  25   13   22 1
  26   14   29 1
  27   14   30 1
  28   16   17 ar
  29   16   31 1
  30   17   20 ar
  31   17   32 1
  32   18   19 ar
  33   18   20 ar
  34   18   33 1
  35   19   34 1
  36   20   35 1
  37   21   36 1
  38   21   37 1
  39   21   38 1
  40   22   39 1
  41   22   40 1
  42   22   41 1
  43   23   24 1
  44   24   42 1
  45   24   43 1
  46   24   44 1

#	End of record

