#	Name: ASD01816178
#	Creating user name:	WinNT
#	Creation time:	15. 06. 2019 19:34

#	Modifying user name:	WinNT
#	Modification time:	15. 06. 2019 19:34

#	Program:	/corina/corina34_cracker 3.40 0067  02.08.2006

@<TRIPOS>MOLECULE
ASD01816178
  54   59    0    0    0
SMALL
NO_CHARGES


@<TRIPOS>ATOM
   1 C1            -0.6625     0.5829     0.4535 C.ar    
   2 C2            -0.3684    -0.7703     0.4073 C.ar    
   3 C3             0.9333    -1.2022     0.2589 C.ar    
   4 C4             1.9663    -0.2775     0.1544 C.ar    
   5 C5             1.6648     1.0939     0.2016 C.ar    
   6 C6             0.3482     1.5168     0.3511 C.ar    
   7 N7             3.2747    -0.7043     0.0063 N.pl3   
   8 C8             4.3122     0.1415    -0.0994 C.2     
   9 C9             4.1399     1.5030    -0.0670 C.2     
  10 C10            2.7760     2.0579     0.0889 C.2     
  11 C11            5.0168     2.6668    -0.1524 C.2     
  12 N12            4.2156     3.7496    -0.0538 N.am    
  13 N13            2.8829     3.3556     0.0895 N.2     
  14 C14            4.6579     5.0781    -0.0895 C.ar    
  15 C15            4.3352     5.9484     0.9462 C.ar    
  16 C16            5.4243     5.5280    -1.1563 C.ar    
  17 C17            5.8590     6.8386    -1.1889 C.ar    
  18 C18            5.5325     7.7038    -0.1606 C.ar    
  19 C19            4.7739     7.2594     0.9067 C.ar    
  20 F20            3.5940     5.5140     1.9889 F       
  21 O21            6.2298     2.6623    -0.2853 O.2     
  22 C22            3.5397    -2.1445    -0.0365 C.3     
  23 C23            3.4135    -2.6365    -1.4553 C.ar    
  24 C24            3.4804    -4.0008    -1.7295 C.ar    
  25 C25            3.3629    -4.4488    -3.0438 C.ar    
  26 C26            3.1811    -3.5399    -4.0662 C.ar    
  27 C27            3.1154    -2.1863    -3.7883 C.ar    
  28 C28            3.2257    -1.7366    -2.4851 C.ar    
  29 C29            3.6765    -4.9733    -0.6259 C.ar    
  30 C30            2.7658    -6.0110    -0.4384 C.ar    
  31 C31            2.9533    -6.9130     0.5893 C.ar    
  32 C32            4.0426    -6.7879     1.4325 C.ar    
  33 C33            4.9495    -5.7594     1.2513 C.ar    
  34 C34            4.7751    -4.8554     0.2230 C.ar    
  35 H35           -1.6864     0.9078     0.5655 H       
  36 H36           -1.1660    -1.4939     0.4885 H       
  37 H37            1.1502    -2.2596     0.2242 H       
  38 H38            0.1180     2.5714     0.3875 H       
  39 H39            5.3084    -0.2599    -0.2126 H       
  40 H40            5.6807     4.8534    -1.9599 H       
  41 H41            6.4551     7.1884    -2.0188 H       
  42 H42            5.8746     8.7277    -0.1890 H       
  43 H43            4.5204     7.9377     1.7080 H       
  44 H44            4.5486    -2.3393     0.3272 H       
  45 H45            2.8193    -2.6654     0.5941 H       
  46 H46            3.4144    -5.5053    -3.2619 H       
  47 H47            3.0903    -3.8860    -5.0852 H       
  48 H48            2.9734    -1.4784    -4.5915 H       
  49 H49            3.1737    -0.6787    -2.2738 H       
  50 H50            1.9145    -6.1092    -1.0958 H       
  51 H51            2.2480    -7.7178     0.7355 H       
  52 H52            4.1853    -7.4957     2.2357 H       
  53 H53            5.7980    -5.6661     1.9128 H       
  54 H54            5.4839    -4.0529     0.0821 H       
@<TRIPOS>BOND
   1    1    2 ar
   2    1    6 ar
   3    1   35 1
   4    2    3 ar
   5    2   36 1
   6    3    4 ar
   7    3   37 1
   8    4    5 ar
   9    4    7 1
  10    5    6 ar
  11    5   10 1
  12    6   38 1
  13    7    8 1
  14    7   22 1
  15    8    9 2
  16    8   39 1
  17    9   10 1
  18    9   11 1
  19   10   13 2
  20   11   12 am
  21   11   21 2
  22   12   13 1
  23   12   14 1
  24   14   15 ar
  25   14   16 ar
  26   15   20 1
  27   15   19 ar
  28   16   17 ar
  29   16   40 1
  30   17   18 ar
  31   17   41 1
  32   18   19 ar
  33   18   42 1
  34   19   43 1
  35   22   23 1
  36   22   44 1
  37   22   45 1
  38   23   24 ar
  39   23   28 ar
  40   24   25 ar
  41   24   29 1
  42   25   26 ar
  43   25   46 1
  44   26   27 ar
  45   26   47 1
  46   27   28 ar
  47   27   48 1
  48   28   49 1
  49   29   30 ar
  50   29   34 ar
  51   30   31 ar
  52   30   50 1
  53   31   32 ar
  54   31   51 1
  55   32   33 ar
  56   32   52 1
  57   33   34 ar
  58   33   53 1
  59   34   54 1

#	End of record

