#	Name: ASD05060087
#	Creating user name:	WinNT
#	Creation time:	15. 06. 2019 20:56

#	Modifying user name:	WinNT
#	Modification time:	15. 06. 2019 20:56

#	Program:	/corina/corina34_cracker 3.40 0067  02.08.2006

@<TRIPOS>MOLECULE
ASD05060087
  25   26    0    0    0
SMALL
NO_CHARGES


@<TRIPOS>ATOM
   1 C1             0.1143     1.5018    -0.0258 C.3     
   2 C2             0.0613    -0.0042    -0.0135 C.2     
   3 C3             0.1449    -0.8062     1.0721 C.2     
   4 C4             0.3090    -0.4021     2.5146 C.3     
   5 O5            -0.9717    -0.1053     3.0747 O.3     
   6 C6             0.0421    -2.1202     0.5360 C.2     
   7 N7            -0.0870    -1.9756    -0.7594 N.2     
   8 O8            -0.0837    -0.8087    -1.0761 O.3     
   9 C9             0.0745    -3.3971     1.2922 C.ar    
  10 C10           -0.6016    -3.5085     2.5053 C.ar    
  11 C11           -0.5686    -4.6983     3.2041 C.ar    
  12 C12            0.1344    -5.7787     2.7023 C.ar    
  13 C13            0.8077    -5.6734     1.4987 C.ar    
  14 C14            0.7762    -4.4902     0.7886 C.ar    
  15 H15            1.1486     1.8281    -0.1347 H       
  16 H16           -0.4756     1.8793    -0.8611 H       
  17 H17           -0.2918     1.8873     0.9093 H       
  18 H18            0.7683    -1.2192     3.0708 H       
  19 H19            0.9452     0.4810     2.5744 H       
  20 H20           -0.9423     0.1628     4.0033 H       
  21 H21           -1.1502    -2.6653     2.8984 H       
  22 H22           -1.0923    -4.7858     4.1446 H       
  23 H23            0.1580    -6.7077     3.2525 H       
  24 H24            1.3554    -6.5199     1.1116 H       
  25 H25            1.2985    -4.4105    -0.1533 H       
@<TRIPOS>BOND
   1    1    2 1
   2    1   15 1
   3    1   16 1
   4    1   17 1
   5    2    3 2
   6    2    8 1
   7    3    4 1
   8    3    6 1
   9    4    5 1
  10    4   18 1
  11    4   19 1
  12    5   20 1
  13    6    7 2
  14    6    9 1
  15    7    8 1
  16    9   10 ar
  17    9   14 ar
  18   10   11 ar
  19   10   21 1
  20   11   12 ar
  21   11   22 1
  22   12   13 ar
  23   12   23 1
  24   13   14 ar
  25   13   24 1
  26   14   25 1

#	End of record

