#	Name: ASD01208063
#	Creating user name:	WinNT
#	Creation time:	15. 06. 2019 19:09

#	Modifying user name:	WinNT
#	Modification time:	15. 06. 2019 19:09

#	Program:	/corina/corina34_cracker 3.40 0067  02.08.2006

@<TRIPOS>MOLECULE
ASD01208063
  60   64    0    0    0
SMALL
NO_CHARGES


@<TRIPOS>ATOM
   1 C1            -0.0651     1.4578    -0.0021 C.ar    
   2 C2             0.0529     0.0758    -0.0342 C.ar    
   3 C3            -1.0814    -0.7228     0.0111 C.ar    
   4 C4            -2.3365    -0.1427     0.0887 C.ar    
   5 C5            -2.4597     1.2473     0.1218 C.ar    
   6 C6            -1.3162     2.0463     0.0813 C.ar    
   7 C7            -3.7967     1.8709     0.2045 C.2     
   8 C8            -4.0515     3.2116     0.2432 C.2     
   9 N9            -4.9920     1.2017     0.2496 N.pl3   
  10 C10           -6.0060     2.1254     0.3225 C.2     
  11 C11           -5.4367     3.3801     0.3195 C.2     
  12 O12            1.0488     2.2351    -0.0467 O.3     
  13 C13            0.8511     3.6472    -0.1403 C.3     
  14 C14            2.0795     4.2925    -0.7850 C.3     
  15 O15            3.2106     4.1251     0.0720 O.3     
  16 C16            0.6464     4.2275     1.2606 C.3     
  17 O17           -0.9602    -2.0760    -0.0211 O.3     
  18 C18           -1.4250    -2.7304    -1.1125 C.ar    
  19 C19           -1.4239    -4.1265    -1.1420 C.ar    
  20 N20           -1.8858    -2.0447    -2.1498 N.ar    
  21 C21           -2.3390    -2.6820    -3.2141 C.ar    
  22 C22           -2.3328    -4.0756    -3.2462 C.ar    
  23 N23           -1.8749    -4.7630    -2.2010 N.ar    
  24 C24           -7.4448     1.8279     0.3878 C.2     
  25 C25            4.4170     4.6950    -0.4397 C.3     
  26 N26           -8.3995     2.7152     0.4569 N.2     
  27 C27           -9.6310     2.2621     0.5073 C.2     
  28 C28           -9.7649     0.9320     0.4818 C.2     
  29 S29           -8.1574     0.2168     0.3778 S.3     
  30 C30           -2.8401    -4.7906    -4.4374 C.2     
  31 N31           -2.8338    -6.1380    -4.4680 N.am    
  32 O32           -3.2626    -4.1631    -5.3887 O.2     
  33 C33           -3.2358    -7.1773    -5.4277 C.3     
  34 C34           -3.4651    -8.1146    -4.2340 C.3     
  35 C35           -2.4159    -7.2159    -3.5589 C.3     
  36 H36            1.0302    -0.3798    -0.0951 H       
  37 H37           -3.2186    -0.7648     0.1232 H       
  38 H38           -1.4070     3.1222     0.1066 H       
  39 H39           -3.3145     4.0007     0.2190 H       
  40 H40           -5.1031     0.2383     0.2324 H       
  41 H41           -5.9642     4.3213     0.3670 H       
  42 H42           -0.0288     3.8513    -0.7503 H       
  43 H43            2.2778     3.8168    -1.7455 H       
  44 H44            1.8934     5.3556    -0.9376 H       
  45 H45            0.4956     5.3046     1.1892 H       
  46 H46           -0.2287     3.7677     1.7199 H       
  47 H47            1.5263     4.0234     1.8706 H       
  48 H48           -1.0521    -4.6839    -0.2950 H       
  49 H49           -2.7146    -2.1237    -4.0589 H       
  50 H50            5.2279     4.5257     0.2687 H       
  51 H51            4.6638     4.2277    -1.3930 H       
  52 H52            4.2795     5.7665    -0.5851 H       
  53 H53          -10.4831     2.9230     0.5662 H       
  54 H54          -10.6980     0.3892     0.5152 H       
  55 H55           -4.1490    -6.9360    -5.9717 H       
  56 H56           -2.4267    -7.4992    -6.0832 H       
  57 H57           -4.4621    -8.0481    -3.7985 H       
  58 H58           -3.1325    -9.1393    -4.4000 H       
  59 H59           -1.3908    -7.5501    -3.7186 H       
  60 H60           -2.6332    -7.0064    -2.5115 H       
@<TRIPOS>BOND
   1    1    2 ar
   2    1   12 1
   3    1    6 ar
   4    2    3 ar
   5    2   36 1
   6    3    4 ar
   7    3   17 1
   8    4    5 ar
   9    4   37 1
  10    5    6 ar
  11    5    7 1
  12    6   38 1
  13    7    8 2
  14    7    9 1
  15    8   11 1
  16    8   39 1
  17    9   10 1
  18    9   40 1
  19   10   11 2
  20   10   24 1
  21   11   41 1
  22   12   13 1
  23   13   14 1
  24   13   16 1
  25   13   42 1
  26   14   15 1
  27   14   43 1
  28   14   44 1
  29   15   25 1
  30   16   45 1
  31   16   46 1
  32   16   47 1
  33   17   18 1
  34   18   19 ar
  35   18   20 ar
  36   19   23 ar
  37   19   48 1
  38   20   21 ar
  39   21   22 ar
  40   21   49 1
  41   22   23 ar
  42   22   30 1
  43   24   26 2
  44   24   29 1
  45   25   50 1
  46   25   51 1
  47   25   52 1
  48   26   27 1
  49   27   28 2
  50   27   53 1
  51   28   29 1
  52   28   54 1
  53   30   31 am
  54   30   32 2
  55   31   33 1
  56   31   35 1
  57   33   34 1
  58   33   55 1
  59   33   56 1
  60   34   35 1
  61   34   57 1
  62   34   58 1
  63   35   59 1
  64   35   60 1

#	End of record

