#	Name: ASD01913359
#	Creating user name:	WinNT
#	Creation time:	15. 06. 2019 20:01

#	Modifying user name:	WinNT
#	Modification time:	15. 06. 2019 20:01

#	Program:	/corina/corina34_cracker 3.40 0067  02.08.2006

@<TRIPOS>MOLECULE
ASD01913359
  26   28    0    0    0
SMALL
NO_CHARGES


@<TRIPOS>ATOM
   1 C1            -0.0166     1.3732     0.0096 C.2     
   2 C2             0.0021    -0.0041     0.0020 C.2     
   3 C3             1.2408    -0.6894    -0.0135 C.2     
   4 C4             2.3981     0.0212    -0.0207 C.2     
   5 C5             2.3511     1.4286    -0.0127 C.2     
   6 N6             1.1465     2.0734     0.0022 N.pl3   
   7 N7             3.2991     2.3596    -0.0167 N.2     
   8 C8             2.7438     3.5629    -0.0049 C.2     
   9 N9             1.4368     3.4454     0.0069 N.2     
  10 C10           -1.2265    -0.7398     0.0102 C.1     
  11 C11           -2.2337    -1.3429     0.0170 C.1     
  12 C12           -3.4622    -2.0786     0.0252 C.ar    
  13 C13           -3.4439    -3.4758     0.0175 C.ar    
  14 C14           -4.6311    -4.1777     0.0255 C.ar    
  15 C15           -5.8643    -2.1180     0.0545 C.ar    
  16 C16           -4.6851    -1.4028     0.0468 C.ar    
  17 C17           -5.8384    -3.5016     0.0411 C.ar    
  18 H18           -0.9604     1.8982     0.0169 H       
  19 H19            1.2653    -1.7691    -0.0191 H       
  20 H20            3.3493    -0.4902    -0.0321 H       
  21 H21            3.2845     4.4978    -0.0051 H       
  22 H22           -2.5024    -4.0048     0.0051 H       
  23 H23           -4.6185    -5.2576     0.0192 H       
  24 H24           -6.8102    -1.5971     0.0712 H       
  25 H25           -4.7068    -0.3231     0.0576 H       
  26 H26           -6.7650    -4.0564     0.0472 H       
@<TRIPOS>BOND
   1    1    2 2
   2    1    6 1
   3    1   18 1
   4    2    3 1
   5    2   10 1
   6    3    4 2
   7    3   19 1
   8    4    5 1
   9    4   20 1
  10    5    6 1
  11    5    7 2
  12    6    9 1
  13    7    8 1
  14    8    9 2
  15    8   21 1
  16   10   11 3
  17   11   12 1
  18   12   13 ar
  19   12   16 ar
  20   13   14 ar
  21   13   22 1
  22   14   17 ar
  23   14   23 1
  24   15   16 ar
  25   15   17 ar
  26   15   24 1
  27   16   25 1
  28   17   26 1

#	End of record

