#	Name: ASD05730038
#	Creating user name:	WinNT
#	Creation time:	15. 06. 2019 21:02

#	Modifying user name:	WinNT
#	Modification time:	15. 06. 2019 21:02

#	Program:	/corina/corina34_cracker 3.40 0067  02.08.2006

@<TRIPOS>MOLECULE
ASD05730038
  76   80    0    0    0
SMALL
NO_CHARGES


@<TRIPOS>ATOM
   1 C1             0.0066     1.5051     0.0186 C.3     
   2 C2             0.0194    -0.0018     0.0073 C.ar    
   3 C3            -1.0206    -0.7050     0.5872 C.ar    
   4 C4            -1.0121    -2.0859     0.5781 C.ar    
   5 C5             0.0425    -2.7686    -0.0144 C.ar    
   6 C6             1.0856    -2.0592    -0.5960 C.ar    
   7 C7             1.0684    -0.6783    -0.5881 C.ar    
   8 N8             0.0544    -4.1665    -0.0249 N.pl3   
   9 C9             0.5856    -4.8446    -1.1049 C.ar    
  10 N10            0.6887    -6.1633    -1.0418 N.ar    
  11 C11            1.1938    -6.8507    -2.0602 C.ar    
  12 C12            1.6173    -6.1468    -3.2088 C.ar    
  13 C13            1.4868    -4.7495    -3.2263 C.ar    
  14 N14            0.9690    -4.1502    -2.1707 N.ar    
  15 N15            1.3037    -8.2169    -2.0007 N.am    
  16 C16            1.8164    -8.9141    -3.0324 C.2     
  17 C17            2.2673    -8.2204    -4.2425 C.2     
  18 C18            2.1590    -6.8442    -4.3113 C.2     
  19 C19            0.8579    -8.9264    -0.7990 C.3     
  20 O20            1.9062   -10.1265    -2.9596 O.2     
  21 C21            2.8303    -8.9825    -5.3739 C.2     
  22 C22           -0.6172    -9.3043    -0.9475 C.3     
  23 N23            2.2832    -9.0843    -6.6205 N.pl3   
  24 C24            1.2612     2.0449     0.7299 C.3     
  25 N25            3.9486    -9.6757    -5.3558 N.2     
  26 C26            4.1426   -10.2323    -6.5575 C.2     
  27 C27            3.1195    -9.8787    -7.3609 C.2     
  28 S28            5.5067   -11.2500    -7.0136 S.o     
  29 C29            4.9269   -12.9186    -6.6008 C.3     
  30 C30            6.0165   -13.9365    -6.9437 C.3     
  31 O31            5.5598   -15.2509    -6.6185 O.3     
  32 C32            6.5076   -16.2822    -6.9016 C.3     
  33 O33            5.5576   -11.1022    -8.4259 O.2     
  34 C34            1.0383    -8.4632    -7.0794 C.3     
  35 N35            2.0237     2.8258    -0.2683 N.3     
  36 C36            1.0287     3.2791    -1.2736 C.3     
  37 C37            0.0932     2.0533    -1.4243 C.3     
  38 N38           -1.0642   -10.0158     0.2575 N.3     
  39 C39           -2.5233   -10.1861     0.2575 C.3     
  40 C40           -0.3830   -11.3108     0.3873 C.3     
  41 H41           -0.8944     1.8714     0.5107 H       
  42 H42           -1.8401    -0.1736     1.0480 H       
  43 H43           -1.8245    -2.6345     1.0315 H       
  44 H44            1.9073    -2.5870    -1.0571 H       
  45 H45            1.8789    -0.1262    -1.0404 H       
  46 H46           -0.3102    -4.6603     0.7262 H       
  47 H47            1.8002    -4.1771    -4.0869 H       
  48 H48            2.4842    -6.3111    -5.1925 H       
  49 H49            1.4532    -9.8302    -0.6689 H       
  50 H50            0.9819    -8.2814     0.0709 H       
  51 H51           -1.2125    -8.4005    -1.0776 H       
  52 H52           -0.7412    -9.9494    -1.8173 H       
  53 H53            0.9695     2.6880     1.5603 H       
  54 H54            1.8674     1.2155     1.0942 H       
  55 H55            2.9840   -10.1673    -8.3928 H       
  56 H56            4.7022   -12.9720    -5.5355 H       
  57 H57            4.0271   -13.1427    -7.1736 H       
  58 H58            6.2413   -13.8831    -8.0089 H       
  59 H59            6.9164   -13.7124    -6.3708 H       
  60 H60            6.0856   -17.2489    -6.6270 H       
  61 H61            6.7426   -16.2775    -7.9660 H       
  62 H62            7.4176   -16.1068    -6.3279 H       
  63 H63            1.2641    -7.5169    -7.5710 H       
  64 H64            0.5385    -9.1283    -7.7837 H       
  65 H65            0.3861    -8.2822    -6.2251 H       
  66 H66            2.4853     3.6122     0.1637 H       
  67 H67            0.4751     4.1426    -0.9047 H       
  68 H68            1.5164     3.5096    -2.2208 H       
  69 H69            0.5324     1.3127    -2.0926 H       
  70 H70           -0.8904     2.3601    -1.7800 H       
  71 H71           -2.8220   -10.7612    -0.6189 H       
  72 H72           -2.8273   -10.7156     1.1604 H       
  73 H73           -3.0032    -9.2078     0.2310 H       
  74 H74            0.6929   -11.1503     0.4551 H       
  75 H75           -0.7324   -11.8165     1.2875 H       
  76 H76           -0.6042   -11.9267    -0.4845 H       
@<TRIPOS>BOND
   1    1    2 1
   2    1   24 1
   3    1   37 1
   4    1   41 1
   5    2    3 ar
   6    2    7 ar
   7    3    4 ar
   8    3   42 1
   9    4    5 ar
  10    4   43 1
  11    5    6 ar
  12    5    8 1
  13    6    7 ar
  14    6   44 1
  15    7   45 1
  16    8    9 1
  17    8   46 1
  18    9   10 ar
  19    9   14 ar
  20   10   11 ar
  21   11   12 ar
  22   11   15 1
  23   12   13 ar
  24   12   18 1
  25   13   14 ar
  26   13   47 1
  27   15   16 am
  28   15   19 1
  29   16   17 1
  30   16   20 2
  31   17   18 2
  32   17   21 1
  33   18   48 1
  34   19   22 1
  35   19   49 1
  36   19   50 1
  37   21   23 1
  38   21   25 2
  39   22   38 1
  40   22   51 1
  41   22   52 1
  42   23   34 1
  43   23   27 1
  44   24   35 1
  45   24   53 1
  46   24   54 1
  47   25   26 1
  48   26   27 2
  49   26   28 1
  50   27   55 1
  51   28   29 1
  52   28   33 2
  53   29   30 1
  54   29   56 1
  55   29   57 1
  56   30   31 1
  57   30   58 1
  58   30   59 1
  59   31   32 1
  60   32   60 1
  61   32   61 1
  62   32   62 1
  63   34   63 1
  64   34   64 1
  65   34   65 1
  66   35   36 1
  67   35   66 1
  68   36   37 1
  69   36   67 1
  70   36   68 1
  71   37   69 1
  72   37   70 1
  73   38   39 1
  74   38   40 1
  75   39   71 1
  76   39   72 1
  77   39   73 1
  78   40   74 1
  79   40   75 1
  80   40   76 1

#	End of record

