#	Name: ASD08070045
#	Creating user name:	WinNT
#	Creation time:	15. 06. 2019 21:14

#	Modifying user name:	WinNT
#	Modification time:	15. 06. 2019 21:14

#	Program:	/corina/corina34_cracker 3.40 0067  02.08.2006

@<TRIPOS>MOLECULE
ASD08070045
  40   41    0    0    0
SMALL
NO_CHARGES


@<TRIPOS>ATOM
   1 C1            -0.0169     1.3916     0.0097 C.ar    
   2 C2             0.0021    -0.0041     0.0020 C.ar    
   3 C3            -1.1845    -0.7103     0.0092 C.ar    
   4 C4            -2.4028    -0.0256     0.0242 C.ar    
   5 C5            -2.4149     1.3709     0.0319 C.ar    
   6 C6            -1.2277     2.0705     0.0198 C.ar    
   7 O7             1.2696     1.8438    -0.0002 O.3     
   8 C8             2.0762     0.7203     0.3996 C.3     
   9 O9             1.3020    -0.4216    -0.0122 O.3     
  10 C10           -3.6735    -0.7766     0.0314 C.2     
  11 N11           -4.8474    -0.1147     0.0459 N.am    
  12 O12           -3.6612    -1.9924     0.0243 O.2     
  13 C13           -6.1086    -0.8600     0.0530 C.3     
  14 C14           -6.4652    -1.2304     1.4696 C.2     
  15 C15           -7.2183     0.0095    -0.5416 C.3     
  16 C16           -7.3728     1.2814     0.2946 C.3     
  17 C17           -8.5354    -0.7689    -0.5341 C.3     
  18 C18           -9.6165     0.0512    -1.2408 C.3     
  19 O19           -5.7403    -0.9051     2.3798 O.2     
  20 O20           -7.5882    -1.9216     1.7202 O.3     
  21 C21           -7.8683    -2.2436     3.1080 C.3     
  22 H22           -1.1711    -1.7902     0.0029 H       
  23 H23           -3.3549     1.9027     0.0436 H       
  24 H24           -1.2392     3.1504     0.0261 H       
  25 H25            3.0373     0.7368    -0.1144 H       
  26 H26            2.2188     0.7166     1.4802 H       
  27 H27           -4.8572     0.8553     0.0516 H       
  28 H28           -5.9985    -1.7662    -0.5427 H       
  29 H29           -6.9603     0.2774    -1.5662 H       
  30 H30           -8.1634     1.9009    -0.1289 H       
  31 H31           -7.6308     1.0135     1.3192 H       
  32 H32           -6.4345     1.8360     0.2893 H       
  33 H33           -8.4001    -1.7170    -1.0547 H       
  34 H34           -8.8389    -0.9597     0.4953 H       
  35 H35          -10.5549    -0.5034    -1.2355 H       
  36 H36           -9.7518     0.9992    -0.7203 H       
  37 H37           -9.3131     0.2420    -2.2702 H       
  38 H38           -7.0561    -2.8480     3.5119 H       
  39 H39           -7.9568    -1.3224     3.6840 H       
  40 H40           -8.8024    -2.8020     3.1701 H       
@<TRIPOS>BOND
   1    1    2 ar
   2    1    7 1
   3    1    6 ar
   4    2    3 ar
   5    2    9 1
   6    3    4 ar
   7    3   22 1
   8    4    5 ar
   9    4   10 1
  10    5    6 ar
  11    5   23 1
  12    6   24 1
  13    7    8 1
  14    8    9 1
  15    8   25 1
  16    8   26 1
  17   10   11 am
  18   10   12 2
  19   11   13 1
  20   11   27 1
  21   13   14 1
  22   13   15 1
  23   13   28 1
  24   14   19 2
  25   14   20 1
  26   15   16 1
  27   15   17 1
  28   15   29 1
  29   16   30 1
  30   16   31 1
  31   16   32 1
  32   17   18 1
  33   17   33 1
  34   17   34 1
  35   18   35 1
  36   18   36 1
  37   18   37 1
  38   20   21 1
  39   21   38 1
  40   21   39 1
  41   21   40 1

#	End of record

