#	Name: ASD03090715
#	Creating user name:	WinNT
#	Creation time:	15. 06. 2019 20:29

#	Modifying user name:	WinNT
#	Modification time:	15. 06. 2019 20:29

#	Program:	/corina/corina34_cracker 3.40 0067  02.08.2006

@<TRIPOS>MOLECULE
ASD03090715
  51   54    0    0    0
SMALL
NO_CHARGES


@<TRIPOS>ATOM
   1 C1            -0.0169     1.3914     0.0097 C.ar    
   2 C2             0.0021    -0.0041     0.0020 C.ar    
   3 C3             1.2368    -0.6634    -0.0133 C.ar    
   4 C4             2.3894     0.1027    -0.0202 C.ar    
   5 C5             2.2856     1.4819    -0.0118 C.ar    
   6 N6             1.1076     2.0763     0.0026 N.ar    
   7 C7            -1.2606    -0.7730     0.0104 C.2     
   8 O8            -1.2322    -1.9882     0.0036 O.2     
   9 N9            -2.4431    -0.1266     0.0256 N.am    
  10 C10            3.5384     2.3195    -0.0192 C.3     
  11 F11            3.9135     2.5857    -1.3404 F       
  12 F12            3.2975     3.5247     0.6491 F       
  13 F13            4.5671     1.6255     0.6268 F       
  14 C14           -3.6944    -0.8886     0.0339 C.3     
  15 N15           -8.0636     2.6732    -0.1979 N.pl3   
  16 C16           -8.2040     2.7858    -1.5542 C.2     
  17 C17           -7.2813     2.0321    -2.1729 C.2     
  18 C18           -6.4862     1.3850    -1.1261 C.ar    
  19 C19           -5.4034     0.5016    -1.1374 C.ar    
  20 C20           -4.8623     0.0636     0.0506 C.ar    
  21 C21           -5.3834     0.4912     1.2616 C.ar    
  22 C22           -6.4599     1.3683     1.2961 C.ar    
  23 C23           -7.0223     1.8242     0.0959 C.ar    
  24 C24           -9.2403     3.6302    -2.2500 C.3     
  25 F25           -8.7272     4.9135    -2.4668 F       
  26 F26           -9.5699     3.0462    -3.4778 F       
  27 F27          -10.3858     3.7148    -1.4513 F       
  28 C28           -7.2179     3.1755     2.8430 C.ar    
  29 C29           -7.0112     1.8206     2.5964 C.ar    
  30 C30           -7.3315     0.8922     3.5929 C.ar    
  31 C31           -7.8429     1.3616     4.7878 C.ar    
  32 C32           -8.0210     2.7290     4.9596 C.ar    
  33 N33           -7.7076     3.5813     3.9973 N.ar    
  34 O34           -8.5226     3.1966     6.1302 O.3     
  35 C35           -8.6831     4.6116     6.2481 C.3     
  36 H36           -0.9620     1.9140     0.0170 H       
  37 H37            1.2887    -1.7421    -0.0192 H       
  38 H38            3.3597    -0.3714    -0.0316 H       
  39 H39           -2.4658     0.8431     0.0310 H       
  40 H40           -3.7463    -1.5116    -0.8590 H       
  41 H41           -3.7286    -1.5212     0.9209 H       
  42 H42           -8.6139     3.1279     0.4588 H       
  43 H43           -7.1504     1.9231    -3.2393 H       
  44 H44           -4.9915     0.1631    -2.0766 H       
  45 H45           -4.9493     0.1393     2.1858 H       
  46 H46           -6.9699     3.9013     2.0827 H       
  47 H47           -7.1831    -0.1654     3.4320 H       
  48 H48           -8.1016     0.6735     5.5790 H       
  49 H49           -7.7151     5.0983     6.1292 H       
  50 H50           -9.3652     4.9656     5.4751 H       
  51 H51           -9.0915     4.8504     7.2301 H       
@<TRIPOS>BOND
   1    1    2 ar
   2    1    6 ar
   3    1   36 1
   4    2    3 ar
   5    2    7 1
   6    3    4 ar
   7    3   37 1
   8    4    5 ar
   9    4   38 1
  10    5    6 ar
  11    5   10 1
  12    7    8 2
  13    7    9 am
  14    9   14 1
  15    9   39 1
  16   10   11 1
  17   10   12 1
  18   10   13 1
  19   14   20 1
  20   14   40 1
  21   14   41 1
  22   15   16 1
  23   15   23 1
  24   15   42 1
  25   16   17 2
  26   16   24 1
  27   17   18 1
  28   17   43 1
  29   18   19 ar
  30   18   23 ar
  31   19   20 ar
  32   19   44 1
  33   20   21 ar
  34   21   22 ar
  35   21   45 1
  36   22   23 ar
  37   22   29 1
  38   24   25 1
  39   24   26 1
  40   24   27 1
  41   28   29 ar
  42   28   33 ar
  43   28   46 1
  44   29   30 ar
  45   30   31 ar
  46   30   47 1
  47   31   32 ar
  48   31   48 1
  49   32   33 ar
  50   32   34 1
  51   34   35 1
  52   35   49 1
  53   35   50 1
  54   35   51 1

#	End of record

