#	Name: ASD08070120
#	Creating user name:	WinNT
#	Creation time:	15. 06. 2019 21:14

#	Modifying user name:	WinNT
#	Modification time:	15. 06. 2019 21:14

#	Program:	/corina/corina34_cracker 3.40 0067  02.08.2006

@<TRIPOS>MOLECULE
ASD08070120
  38   40    0    0    0
SMALL
NO_CHARGES


@<TRIPOS>ATOM
   1 C1             0.0816     1.2416     0.5958 C.ar    
   2 C2             0.0008    -0.0024    -0.0188 C.ar    
   3 N3            -1.1998    -0.7221     0.0092 N.am    
   4 C4            -1.1830    -2.0653    -0.0999 C.2     
   5 N5            -2.3301    -2.7646     0.0080 N.am    
   6 O6            -0.1330    -2.6463    -0.2957 O.2     
   7 C7             1.2682     1.9492     0.5658 C.ar    
   8 C8             1.1129    -0.5295    -0.6607 C.ar    
   9 C9             2.2962     0.1833    -0.6870 C.ar    
  10 C10            2.3738     1.4206    -0.0753 C.ar    
  11 Cl11          -1.3083     1.9087     1.3939 Cl      
  12 C12           -2.3119    -4.2246    -0.1106 C.3     
  13 C13           -1.9837    -4.8278     1.2301 C.ar    
  14 C14           -2.6345    -5.9360     1.7234 C.ar    
  15 C15           -3.7360    -6.6327     0.9681 C.3     
  16 C16           -3.7085    -6.2378    -0.5071 C.3     
  17 C17           -3.6767    -4.7075    -0.5973 C.3     
  18 C18           -0.9814    -4.2275     1.9816 C.ar    
  19 C19           -0.6314    -4.7345     3.2156 C.ar    
  20 C20           -1.2826    -5.8498     3.7095 C.ar    
  21 C21           -2.2789    -6.4465     2.9654 C.ar    
  22 H22           -2.0437    -0.2539     0.1070 H       
  23 H23           -3.1678    -2.3011     0.1642 H       
  24 H24            1.3321     2.9159     1.0430 H       
  25 H25            1.0534    -1.4960    -1.1388 H       
  26 H26            3.1616    -0.2266    -1.1864 H       
  27 H27            3.3001     1.9755    -0.0974 H       
  28 H28           -1.5494    -4.5170    -0.8326 H       
  29 H29           -3.6043    -7.7113     1.0539 H       
  30 H30           -4.6983    -6.3534     1.3971 H       
  31 H31           -2.8190    -6.6521    -0.9816 H       
  32 H32           -4.6011    -6.6165    -1.0052 H       
  33 H33           -4.4609    -4.2863     0.0318 H       
  34 H34           -3.8286    -4.3974    -1.6312 H       
  35 H35           -0.4718    -3.3568     1.5962 H       
  36 H36            0.1488    -4.2621     3.7940 H       
  37 H37           -1.0118    -6.2525     4.6743 H       
  38 H38           -2.7872    -7.3176     3.3519 H       
@<TRIPOS>BOND
   1    1    2 ar
   2    1    7 ar
   3    1   11 1
   4    2    8 ar
   5    2    3 1
   6    3    4 am
   7    3   22 1
   8    4    5 am
   9    4    6 2
  10    5   12 1
  11    5   23 1
  12    7   10 ar
  13    7   24 1
  14    8    9 ar
  15    8   25 1
  16    9   10 ar
  17    9   26 1
  18   10   27 1
  19   12   13 1
  20   12   17 1
  21   12   28 1
  22   13   14 ar
  23   13   18 ar
  24   14   15 1
  25   14   21 ar
  26   15   16 1
  27   15   29 1
  28   15   30 1
  29   16   17 1
  30   16   31 1
  31   16   32 1
  32   17   33 1
  33   17   34 1
  34   18   19 ar
  35   18   35 1
  36   19   20 ar
  37   19   36 1
  38   20   21 ar
  39   20   37 1
  40   21   38 1

#	End of record

