#	Name: ASD05503062
#	Creating user name:	WinNT
#	Creation time:	15. 06. 2019 21:01

#	Modifying user name:	WinNT
#	Modification time:	15. 06. 2019 21:01

#	Program:	/corina/corina34_cracker 3.40 0067  02.08.2006

@<TRIPOS>MOLECULE
ASD05503062
  38   40    0    0    0
SMALL
NO_CHARGES


@<TRIPOS>ATOM
   1 C1            -0.0208     1.3776     0.0263 C.ar    
   2 C2             0.0142     0.0054     0.2419 C.ar    
   3 C3             1.2277    -0.6680     0.2214 C.ar    
   4 C4             2.4021     0.0320    -0.0145 C.ar    
   5 C5             2.3601     1.4043    -0.2293 C.ar    
   6 C6             1.1508     2.0716    -0.2083 C.ar    
   7 N7            -1.1704    -0.6954     0.4795 N.am    
   8 N8             3.6269    -0.6427    -0.0355 N.am    
   9 C9             3.6995    -1.8920    -0.5358 C.2     
  10 C10            5.0093    -2.5657    -0.6535 C.ar    
  11 C11            6.1735    -1.9111    -0.2476 C.ar    
  12 C12            7.3931    -2.5459    -0.3597 C.ar    
  13 C13            7.4648    -3.8286    -0.8737 C.ar    
  14 C14            6.3158    -4.4840    -1.2782 C.ar    
  15 C15            5.0877    -3.8630    -1.1663 C.ar    
  16 Br16           3.5177    -4.7604    -1.7190 Br      
  17 O17            2.6874    -2.4647    -0.8902 O.2     
  18 S18           -2.7018    -0.2431    -0.0097 S.o2    
  19 C19           -3.6748    -1.5869     0.7732 C.3     
  20 C20           -2.6829    -2.0582     1.8757 C.3     
  21 C21           -1.2979    -1.9706     1.2009 C.3     
  22 O22           -2.9413     1.0044     0.6272 O.2     
  23 O23           -2.6922    -0.3715    -1.4248 O.2     
  24 H24           -0.9651     1.9016     0.0377 H       
  25 H25            1.2577    -1.7345     0.3890 H       
  26 H26            3.2740     1.9498    -0.4126 H       
  27 H27            1.1209     3.1381    -0.3760 H       
  28 H28            4.4241    -0.2114     0.3100 H       
  29 H29            6.1195    -0.9096     0.1532 H       
  30 H30            8.2943    -2.0402    -0.0459 H       
  31 H31            8.4226    -4.3203    -0.9598 H       
  32 H32            6.3790    -5.4850    -1.6788 H       
  33 H33           -4.5960    -1.2022     1.2110 H       
  34 H34           -3.8832    -2.3871     0.0631 H       
  35 H35           -2.7317    -1.3964     2.7404 H       
  36 H36           -2.8984    -3.0858     2.1683 H       
  37 H37           -1.1829    -2.8000     0.5031 H       
  38 H38           -0.5205    -2.0304     1.9626 H       
@<TRIPOS>BOND
   1    1    2 ar
   2    1    6 ar
   3    1   24 1
   4    2    3 ar
   5    2    7 1
   6    3    4 ar
   7    3   25 1
   8    4    5 ar
   9    4    8 1
  10    5    6 ar
  11    5   26 1
  12    6   27 1
  13    7   18 am
  14    7   21 1
  15    8    9 am
  16    8   28 1
  17    9   10 1
  18    9   17 2
  19   10   11 ar
  20   10   15 ar
  21   11   12 ar
  22   11   29 1
  23   12   13 ar
  24   12   30 1
  25   13   14 ar
  26   13   31 1
  27   14   15 ar
  28   14   32 1
  29   15   16 1
  30   18   19 1
  31   18   22 2
  32   18   23 2
  33   19   20 1
  34   19   33 1
  35   19   34 1
  36   20   21 1
  37   20   35 1
  38   20   36 1
  39   21   37 1
  40   21   38 1

#	End of record

