#	Name: ASD08150057
#	Creating user name:	WinNT
#	Creation time:	15. 06. 2019 21:15

#	Modifying user name:	WinNT
#	Modification time:	15. 06. 2019 21:15

#	Program:	/corina/corina34_cracker 3.40 0067  02.08.2006

@<TRIPOS>MOLECULE
ASD08150057
  90   95    0    0    0
SMALL
NO_CHARGES


@<TRIPOS>ATOM
   1 O1             2.0663     1.0060    -2.0527 O.3     
   2 C2             2.6868    -0.0790    -2.5291 C.2     
   3 N3             4.0227     0.0251    -2.5483 N.am    
   4 C4             4.4049     1.3444    -2.0219 C.3     
   5 C5             3.0564     2.0096    -1.6848 C.3     
   6 O6             2.0935    -1.0687    -2.9093 O.2     
   7 C7             5.1513     2.1519    -3.0857 C.3     
   8 C8             2.8640     3.2817    -2.5128 C.3     
   9 C9             1.5317     3.9356    -2.1409 C.3     
  10 O10            1.3520     5.1237    -2.9143 O.3     
  11 Si11          -0.0615     5.8887    -2.6365 Si      
  12 C12           -0.4100     7.0795    -4.0328 C.ar    
  13 C13           -1.5888     6.9801    -4.7480 C.ar    
  14 C14           -1.8467     7.8614    -5.7813 C.ar    
  15 C15           -0.9260     8.8423    -6.0992 C.ar    
  16 C16            0.2524     8.9422    -5.3834 C.ar    
  17 C17            0.5083     8.0637    -4.3473 C.ar    
  18 C18           -1.4395     4.6319    -2.5314 C.ar    
  19 C19           -2.0165     4.1405    -3.6875 C.ar    
  20 C20           -3.0362     3.2105    -3.6097 C.ar    
  21 C21           -3.4787     2.7715    -2.3759 C.ar    
  22 C22           -2.9011     3.2622    -1.2198 C.ar    
  23 C23           -1.8784     4.1889    -1.2976 C.ar    
  24 C24            0.0459     6.8281    -1.0313 C.3     
  25 C25            0.9320     8.0610    -1.2202 C.3     
  26 C26           -1.3555     7.2680    -0.6031 C.3     
  27 C27            0.6495     5.9269     0.0478 C.3     
  28 C28            7.0646    -1.7094    -3.2966 C.ar    
  29 N29            6.6461    -2.8373    -3.8487 N.ar    
  30 C30            5.3442    -3.0803    -4.0005 C.ar    
  31 C31            4.4227    -2.1272    -3.5686 C.ar    
  32 C32            4.9040    -0.9543    -2.9934 C.ar    
  33 N33            6.2172    -0.7825    -2.8754 N.ar    
  34 C34            4.0485    -6.6341    -5.7397 C.ar    
  35 N35            5.3499    -6.4210    -5.6027 N.ar    
  36 C36            5.8003    -5.3063    -5.0562 C.ar    
  37 C37            4.8829    -4.3454    -4.6200 C.ar    
  38 C38            3.5197    -4.6084    -4.7825 C.ar    
  39 N39            3.1482    -5.7475    -5.3386 N.ar    
  40 C40            7.2814    -5.0734    -4.9044 C.3     
  41 F41            7.9828    -6.1192    -5.5141 F       
  42 F42            7.6279    -3.8624    -5.5130 F       
  43 F43            7.6086    -5.0226    -3.5451 F       
  44 O44           11.0004    -2.0441    -2.1764 O.3     
  45 C45           10.6910    -2.3301    -3.5431 C.3     
  46 C46            9.1957    -2.6338    -3.6694 C.3     
  47 N47            8.4241    -1.4951    -3.1505 N.3     
  48 C48            8.7677    -1.2297    -1.7459 C.3     
  49 C49           10.2672    -0.9401    -1.6389 C.3     
  50 N50            3.6184    -7.8113    -6.3221 N.pl3   
  51 H51            5.0137     1.2368    -1.1243 H       
  52 H52            2.9964     2.2331    -0.6196 H       
  53 H53            4.5172     2.2687    -3.9645 H       
  54 H54            5.4030     3.1342    -2.6860 H       
  55 H55            6.0656     1.6279    -3.3644 H       
  56 H56            3.6791     3.9756    -2.3077 H       
  57 H57            2.8608     3.0281    -3.5729 H       
  58 H58            0.7166     3.2417    -2.3461 H       
  59 H59            1.5349     4.1892    -1.0808 H       
  60 H60           -2.3081     6.2138    -4.4996 H       
  61 H61           -2.7673     7.7833    -6.3405 H       
  62 H62           -1.1272     9.5303    -6.9070 H       
  63 H63            0.9718     9.7084    -5.6320 H       
  64 H64            1.4273     8.1441    -3.7857 H       
  65 H65           -1.6708     4.4835    -4.6514 H       
  66 H66           -3.4875     2.8272    -4.5129 H       
  67 H67           -4.2759     2.0454    -2.3151 H       
  68 H68           -3.2470     2.9194    -0.2558 H       
  69 H69           -1.4246     4.5695    -0.3945 H       
  70 H70            0.5384     8.6701    -2.0340 H       
  71 H71            0.9416     8.6460    -0.3005 H       
  72 H72            1.9472     7.7455    -1.4608 H       
  73 H73           -1.9524     6.3900    -0.3563 H       
  74 H74           -1.2820     7.9149     0.2712 H       
  75 H75           -1.8306     7.8126    -1.4191 H       
  76 H76            1.6961     5.7316    -0.1856 H       
  77 H77            0.5794     6.4224     1.0161 H       
  78 H78            0.1028     4.9844     0.0815 H       
  79 H79            3.3613    -2.2946    -3.6780 H       
  80 H80            2.7808    -3.8905    -4.4584 H       
  81 H81           10.9406    -1.4675    -4.1610 H       
  82 H82           11.2671    -3.1944    -3.8736 H       
  83 H83            8.9446    -2.7963    -4.7175 H       
  84 H84            8.9561    -3.5281    -3.0942 H       
  85 H85            8.2041    -0.3673    -1.3901 H       
  86 H86            8.5213    -2.1016    -1.1400 H       
  87 H87           10.5369    -0.7991    -0.5923 H       
  88 H88           10.5046    -0.0371    -2.2015 H       
  89 H89            4.2656    -8.4678    -6.6240 H       
  90 H90            2.6694    -7.9812    -6.4290 H       
@<TRIPOS>BOND
   1    1    2 1
   2    1    5 1
   3    2    3 am
   4    2    6 2
   5    3    4 1
   6    3   32 1
   7    4    5 1
   8    4    7 1
   9    4   51 1
  10    5    8 1
  11    5   52 1
  12    7   53 1
  13    7   54 1
  14    7   55 1
  15    8    9 1
  16    8   56 1
  17    8   57 1
  18    9   10 1
  19    9   58 1
  20    9   59 1
  21   10   11 1
  22   11   12 1
  23   11   18 1
  24   11   24 1
  25   12   13 ar
  26   12   17 ar
  27   13   14 ar
  28   13   60 1
  29   14   15 ar
  30   14   61 1
  31   15   16 ar
  32   15   62 1
  33   16   17 ar
  34   16   63 1
  35   17   64 1
  36   18   19 ar
  37   18   23 ar
  38   19   20 ar
  39   19   65 1
  40   20   21 ar
  41   20   66 1
  42   21   22 ar
  43   21   67 1
  44   22   23 ar
  45   22   68 1
  46   23   69 1
  47   24   25 1
  48   24   27 1
  49   24   26 1
  50   25   70 1
  51   25   71 1
  52   25   72 1
  53   26   73 1
  54   26   74 1
  55   26   75 1
  56   27   76 1
  57   27   77 1
  58   27   78 1
  59   28   29 ar
  60   28   33 ar
  61   28   47 1
  62   29   30 ar
  63   30   31 ar
  64   30   37 1
  65   31   32 ar
  66   31   79 1
  67   32   33 ar
  68   34   35 ar
  69   34   39 ar
  70   34   50 1
  71   35   36 ar
  72   36   37 ar
  73   36   40 1
  74   37   38 ar
  75   38   39 ar
  76   38   80 1
  77   40   41 1
  78   40   42 1
  79   40   43 1
  80   44   45 1
  81   44   49 1
  82   45   46 1
  83   45   81 1
  84   45   82 1
  85   46   47 1
  86   46   83 1
  87   46   84 1
  88   47   48 1
  89   48   49 1
  90   48   85 1
  91   48   86 1
  92   49   87 1
  93   49   88 1
  94   50   89 1
  95   50   90 1

#	End of record

