#	Name: ASD08070105
#	Creating user name:	WinNT
#	Creation time:	15. 06. 2019 21:14

#	Modifying user name:	WinNT
#	Modification time:	15. 06. 2019 21:14

#	Program:	/corina/corina34_cracker 3.40 0067  02.08.2006

@<TRIPOS>MOLECULE
ASD08070105
  40   42    0    0    0
SMALL
NO_CHARGES


@<TRIPOS>ATOM
   1 C1            -0.0166     1.3730     0.0096 C.ar    
   2 C2             0.0021    -0.0041     0.0020 C.ar    
   3 C3             1.1763     2.0860     0.0020 C.ar    
   4 C4             2.3926     1.4130    -0.0137 C.ar    
   5 C5             2.4197     0.0365    -0.0214 C.ar    
   6 C6             1.2224    -0.6842    -0.0133 C.ar    
   7 C7             1.2470    -2.1600    -0.0215 C.2     
   8 N8             0.0912    -2.8533    -0.0137 N.am    
   9 C9            -1.1765    -4.8468     0.5976 C.3     
  10 O10            2.3099    -2.7502    -0.0353 O.2     
  11 O11            1.1537     3.4429     0.0096 O.3     
  12 C12           -1.2287    -6.3644     0.3850 C.3     
  13 C13            3.6831     2.1912    -0.0228 C.3     
  14 C14            0.1156    -4.3180    -0.0219 C.3     
  15 C15            0.2606    -4.8046    -1.4401 C.ar    
  16 C16           -0.4548    -5.8718    -1.9342 C.ar    
  17 C17           -1.4513    -6.6352    -1.1016 C.3     
  18 C18            1.1573    -4.1367    -2.2644 C.ar    
  19 C19            1.3384    -4.5359    -3.5722 C.ar    
  20 C20            0.6226    -5.6103    -4.0673 C.ar    
  21 C21           -0.2683    -6.2747    -3.2505 C.ar    
  22 H22           -0.9595     1.8995     0.0169 H       
  23 H23           -0.9253    -0.5575     0.0083 H       
  24 H24            3.3651    -0.4856    -0.0340 H       
  25 H25           -0.7567    -2.3824    -0.0027 H       
  26 H26           -2.0338    -4.3786     0.1141 H       
  27 H27           -1.1897    -4.6249     1.6647 H       
  28 H28            1.1556     3.8314     0.8951 H       
  29 H29           -0.2871    -6.8122     0.7027 H       
  30 H30           -2.0505    -6.7879     0.9624 H       
  31 H31            4.0046     2.3736     1.0025 H       
  32 H32            4.4485     1.6193    -0.5474 H       
  33 H33            3.5295     3.1436    -0.5303 H       
  34 H34            0.9649    -4.6666     0.5657 H       
  35 H35           -1.3370    -7.7022    -1.2927 H       
  36 H36           -2.4602    -6.3275    -1.3767 H       
  37 H37            1.7171    -3.2977    -1.8782 H       
  38 H38            2.0365    -4.0109    -4.2073 H       
  39 H39            0.7613    -5.9287    -5.0900 H       
  40 H40           -0.8268    -7.1140    -3.6379 H       
@<TRIPOS>BOND
   1    1    2 ar
   2    1    3 ar
   3    1   22 1
   4    2    6 ar
   5    2   23 1
   6    3    4 ar
   7    3   11 1
   8    4    5 ar
   9    4   13 1
  10    5    6 ar
  11    5   24 1
  12    6    7 1
  13    7    8 am
  14    7   10 2
  15    8   14 1
  16    8   25 1
  17    9   12 1
  18    9   14 1
  19    9   26 1
  20    9   27 1
  21   11   28 1
  22   12   17 1
  23   12   29 1
  24   12   30 1
  25   13   31 1
  26   13   32 1
  27   13   33 1
  28   14   15 1
  29   14   34 1
  30   15   16 ar
  31   15   18 ar
  32   16   17 1
  33   16   21 ar
  34   17   35 1
  35   17   36 1
  36   18   19 ar
  37   18   37 1
  38   19   20 ar
  39   19   38 1
  40   20   21 ar
  41   20   39 1
  42   21   40 1

#	End of record

