#	Name: ASD03090575
#	Creating user name:	WinNT
#	Creation time:	15. 06. 2019 20:29

#	Modifying user name:	WinNT
#	Modification time:	15. 06. 2019 20:29

#	Program:	/corina/corina34_cracker 3.40 0067  02.08.2006

@<TRIPOS>MOLECULE
ASD03090575
  36   37    0    0    0
SMALL
NO_CHARGES


@<TRIPOS>ATOM
   1 N1             0.5562     1.2010    -0.0399 N.am    
   2 C2             0.3527    -0.0716    -0.4344 C.2     
   3 O3             1.2341    -0.6768    -1.0135 O.2     
   4 N4            -0.8276    -0.6732    -0.1871 N.am    
   5 S5            -2.4747    -2.8879    -0.3563 S.3     
   6 C6            -1.0376    -1.9863    -0.5942 C.2     
   7 N7            -0.1765    -2.7325    -1.2178 N.2     
   8 N8            -0.5275    -3.9078    -1.5169 N.2     
   9 C9            -1.7241    -4.2612    -1.1702 C.2     
  10 C10           -2.3612    -5.6042    -1.4180 C.3     
  11 F11           -1.4201    -6.4690    -1.9868 F       
  12 F12           -2.8117    -6.1375    -0.2056 F       
  13 F13           -3.4434    -5.4529    -2.2917 F       
  14 C14            1.8200     1.7875    -0.1899 C.ar    
  15 C15            1.9274     3.1391    -0.4888 C.ar    
  16 C16            3.1731     3.7166    -0.6359 C.ar    
  17 C17            4.3171     2.9465    -0.4857 C.ar    
  18 C18            4.2105     1.5960    -0.1870 C.ar    
  19 C19            2.9654     1.0186    -0.0340 C.ar    
  20 O20            5.5434     3.5155    -0.6316 O.3     
  21 C21            5.5789     4.8854    -1.0366 C.3     
  22 C22            6.8961     5.5175    -0.5826 C.3     
  23 C23            5.4714     4.9696    -2.5605 C.3     
  24 H24           -0.1733     1.7122     0.3441 H       
  25 H25           -1.5308    -0.1904     0.2748 H       
  26 H26            1.0368     3.7386    -0.6065 H       
  27 H27            3.2568     4.7679    -0.8684 H       
  28 H28            5.1015     0.9970    -0.0702 H       
  29 H29            2.8827    -0.0320     0.2025 H       
  30 H30            4.7441     5.4201    -0.5834 H       
  31 H31            7.7309     4.9829    -1.0358 H       
  32 H32            6.9232     6.5625    -0.8915 H       
  33 H33            6.9727     5.4575     0.5031 H       
  34 H34            5.4985     6.0146    -2.8695 H       
  35 H35            6.3062     4.4350    -3.0137 H       
  36 H36            4.5329     4.5193    -2.8840 H       
@<TRIPOS>BOND
   1    1    2 am
   2    1   14 1
   3    1   24 1
   4    2    3 2
   5    2    4 am
   6    4    6 1
   7    4   25 1
   8    5    6 1
   9    5    9 1
  10    6    7 2
  11    7    8 1
  12    8    9 2
  13    9   10 1
  14   10   11 1
  15   10   12 1
  16   10   13 1
  17   14   15 ar
  18   14   19 ar
  19   15   16 ar
  20   15   26 1
  21   16   17 ar
  22   16   27 1
  23   17   18 ar
  24   17   20 1
  25   18   19 ar
  26   18   28 1
  27   19   29 1
  28   20   21 1
  29   21   22 1
  30   21   23 1
  31   21   30 1
  32   22   31 1
  33   22   32 1
  34   22   33 1
  35   23   34 1
  36   23   35 1
  37   23   36 1

#	End of record

