#	Name: ASD01883038
#	Creating user name:	WinNT
#	Creation time:	15. 06. 2019 19:45

#	Modifying user name:	WinNT
#	Modification time:	15. 06. 2019 19:45

#	Program:	/corina/corina34_cracker 3.40 0067  02.08.2006

@<TRIPOS>MOLECULE
ASD01883038
  48   50    0    0    0
SMALL
NO_CHARGES


@<TRIPOS>ATOM
   1 N1            -0.0374     1.3781     0.1779 N.am    
   2 C2            -0.0147     0.0415     0.0224 C.2     
   3 C3            -1.2291    -0.6877    -0.0034 C.2     
   4 C4            -2.4402     0.0132     0.1359 C.2     
   5 C5            -2.3974     1.4124     0.2955 C.2     
   6 C6            -1.2071     2.0536     0.3179 C.2     
   7 O7             1.0497    -0.5412    -0.0966 O.2     
   8 C8            -1.2235    -2.1101    -0.1685 C.1     
   9 N9            -1.2190    -3.2386    -0.2994 N.1     
  10 C10            1.2262     2.1190     0.2027 C.3     
  11 C11            1.5972     2.5423    -1.2200 C.3     
  12 C12           -5.3552    -2.0266    -1.0627 C.ar    
  13 C13           -3.7322    -0.7034     0.1148 C.ar    
  14 C14           -4.5390    -0.7261     1.2551 C.ar    
  15 C15           -5.7445    -1.3959     1.2309 C.ar    
  16 C16           -6.1561    -2.0480     0.0724 C.ar    
  17 O17           -7.3436    -2.7063     0.0512 O.3     
  18 C18           -8.4625    -1.9944    -0.2453 C.ar    
  19 C19           -8.3922    -0.6189    -0.4421 C.ar    
  20 C20           -9.5600     0.0639    -0.7424 C.ar    
  21 C21          -10.7471    -0.6380    -0.8357 C.ar    
  22 N22          -10.7795    -1.9423    -0.6433 N.ar    
  23 C23           -9.6908    -2.6297    -0.3616 C.ar    
  24 C24           -4.1500    -1.3596    -1.0457 C.ar    
  25 F25           -6.5261    -1.4189     2.3325 F       
  26 C26            2.9168     3.3161    -1.1941 C.3     
  27 C27            3.2878     3.7394    -2.6168 C.3     
  28 C28           -9.7829    -4.1191    -0.1509 C.3     
  29 H29           -3.3147     1.9721     0.4042 H       
  30 H30           -1.1867     3.1264     0.4408 H       
  31 H31            1.1158     3.0048     0.8282 H       
  32 H32            2.0124     1.4829     0.6092 H       
  33 H33            1.7076     1.6565    -1.8455 H       
  34 H34            0.8109     3.1784    -1.6265 H       
  35 H35           -5.6760    -2.5376    -1.9585 H       
  36 H36           -4.2192    -0.2203     2.1541 H       
  37 H37           -7.4505    -0.0960    -0.3626 H       
  38 H38           -9.5430     1.1320    -0.9012 H       
  39 H39          -11.6605    -0.1111    -1.0691 H       
  40 H40           -3.5284    -1.3442    -1.9287 H       
  41 H41            2.8064     4.2019    -0.5686 H       
  42 H42            3.7031     2.6799    -0.7876 H       
  43 H43            4.2280     4.2906    -2.5984 H       
  44 H44            3.3983     2.8535    -3.2423 H       
  45 H45            2.5016     4.3755    -3.0233 H       
  46 H46           -9.6416    -4.6302    -1.1032 H       
  47 H47           -9.0099    -4.4354     0.5495 H       
  48 H48          -10.7638    -4.3688     0.2535 H       
@<TRIPOS>BOND
   1    1    2 am
   2    1   10 1
   3    1    6 1
   4    2    3 1
   5    2    7 2
   6    3    4 2
   7    3    8 1
   8    4    5 1
   9    4   13 1
  10    5    6 2
  11    5   29 1
  12    6   30 1
  13    8    9 3
  14   10   11 1
  15   10   31 1
  16   10   32 1
  17   11   26 1
  18   11   33 1
  19   11   34 1
  20   12   24 ar
  21   12   16 ar
  22   12   35 1
  23   13   14 ar
  24   13   24 ar
  25   14   15 ar
  26   14   36 1
  27   15   16 ar
  28   15   25 1
  29   16   17 1
  30   17   18 1
  31   18   19 ar
  32   18   23 ar
  33   19   20 ar
  34   19   37 1
  35   20   21 ar
  36   20   38 1
  37   21   22 ar
  38   21   39 1
  39   22   23 ar
  40   23   28 1
  41   24   40 1
  42   26   27 1
  43   26   41 1
  44   26   42 1
  45   27   43 1
  46   27   44 1
  47   27   45 1
  48   28   46 1
  49   28   47 1
  50   28   48 1

#	End of record

