#	Name: ASD08170087
#	Creating user name:	WinNT
#	Creation time:	15. 06. 2019 21:17

#	Modifying user name:	WinNT
#	Modification time:	15. 06. 2019 21:17

#	Program:	/corina/corina34_cracker 3.40 0067  02.08.2006

@<TRIPOS>MOLECULE
ASD08170087
  70   75    0    0    0
SMALL
NO_CHARGES


@<TRIPOS>ATOM
   1 N1            -0.0150     1.2583     0.0090 N.2     
   2 N2             0.0021    -0.0041     0.0020 N.2     
   3 C3             1.1271     1.8769     0.0014 C.2     
   4 S4             2.3826     0.7116    -0.0169 S.3     
   5 C5             1.1681    -0.5677    -0.0121 C.2     
   6 C6             1.4387    -2.0502    -0.0217 C.3     
   7 C7             1.5173    -2.5450    -1.4674 C.3     
   8 C8             1.8707    -4.5448    -2.9228 C.3     
   9 C9             2.1412    -6.0273    -2.9323 C.2     
  10 N10            1.2495    -6.9667    -2.9293 N.2     
  11 S11            3.7292    -6.7949    -2.9574 S.3     
  12 C12            2.9664    -8.3288    -2.9528 C.2     
  13 N13            1.6794    -8.1537    -2.9388 N.2     
  14 N14            3.6171    -9.5578    -2.9674 N.am    
  15 C15            2.9010   -10.6996    -2.9618 C.2     
  16 O16            1.6891   -10.6553    -2.9442 O.2     
  17 C17            3.6061   -12.0314    -2.9776 C.3     
  18 N18            1.3017     3.2566     0.0071 N.am    
  19 C19            0.2284     4.0717     0.0222 C.2     
  20 C20            0.4176     5.5667     0.0285 C.3     
  21 O21           -0.8897     3.6019     0.0309 O.2     
  22 C22            1.7920    -4.0501    -1.4771 C.3     
  23 C23            4.0866   -12.3708    -1.5652 C.3     
  24 C24           -0.9493     6.2537     0.0458 C.3     
  25 C25           -0.7988     7.7571     0.1759 C.ar    
  26 C26            4.9285   -13.6321    -1.5675 C.ar    
  27 N27            2.6784   -13.0712    -3.4423 N.3     
  28 C28           -1.0058     8.2974    -1.0866 C.ar    
  29 O29           -1.2552     7.3241    -2.0051 O.3     
  30 C30           -1.6525     6.1209    -1.3258 C.3     
  31 C31           -0.5175     8.5686     1.2527 C.ar    
  32 C32           -0.4444     9.9399     1.0845 C.ar    
  33 C33           -0.6546    10.4902    -0.1667 C.ar    
  34 C34           -0.9332     9.6792    -1.2470 C.ar    
  35 C35            5.0956   -11.3145    -1.0556 C.3     
  36 O36            6.0287   -12.1045    -0.2992 O.3     
  37 C37            6.0558   -13.3701    -0.7999 C.ar    
  38 C38            7.0125   -14.3708    -0.6466 C.ar    
  39 C39            6.8329   -15.6010    -1.2441 C.ar    
  40 C40            5.7024   -15.8525    -1.9997 C.ar    
  41 C41            4.7492   -14.8626    -2.1599 C.ar    
  42 H42            2.3840    -2.2503     0.4827 H       
  43 H43            0.6331    -2.5700     0.4969 H       
  44 H44            0.5720    -2.3449    -1.9718 H       
  45 H45            2.3230    -2.0252    -1.9860 H       
  46 H46            2.6763    -4.0251    -3.4413 H       
  47 H47            0.9253    -4.3448    -3.4272 H       
  48 H48            4.5863    -9.5933    -2.9815 H       
  49 H49            4.4623   -11.9812    -3.6504 H       
  50 H50            2.1959     3.6323     0.0002 H       
  51 H51            0.9819     5.8579     0.9145 H       
  52 H52            0.9641     5.8675    -0.8654 H       
  53 H53            2.7374    -4.2501    -0.9727 H       
  54 H54            0.9864    -4.5698    -0.9585 H       
  55 H55            3.2433   -12.4659    -0.8812 H       
  56 H56           -1.5739     5.8541     0.8448 H       
  57 H57            1.8756   -13.1373    -2.8347 H       
  58 H58            2.3967   -12.9041    -4.3967 H       
  59 H59           -1.2949     5.2403    -1.8594 H       
  60 H60           -2.7350     6.0862    -1.2031 H       
  61 H61           -0.3543     8.1346     2.2281 H       
  62 H62           -0.2244    10.5784     1.9273 H       
  63 H63           -0.6002    11.5607    -0.2986 H       
  64 H64           -1.0959    10.1171    -2.2207 H       
  65 H65            5.5942   -10.8224    -1.8906 H       
  66 H66            4.6001   -10.5844    -0.4156 H       
  67 H67            7.8983   -14.1827    -0.0581 H       
  68 H68            7.5791   -16.3720    -1.1209 H       
  69 H69            5.5643   -16.8179    -2.4636 H       
  70 H70            3.8644   -15.0549    -2.7486 H       
@<TRIPOS>BOND
   1    1    2 1
   2    1    3 2
   3    2    5 2
   4    3    4 1
   5    3   18 1
   6    4    5 1
   7    5    6 1
   8    6    7 1
   9    6   42 1
  10    6   43 1
  11    7   22 1
  12    7   44 1
  13    7   45 1
  14    8    9 1
  15    8   22 1
  16    8   46 1
  17    8   47 1
  18    9   10 2
  19    9   11 1
  20   10   13 1
  21   11   12 1
  22   12   13 2
  23   12   14 1
  24   14   15 am
  25   14   48 1
  26   15   16 2
  27   15   17 1
  28   17   23 1
  29   17   27 1
  30   17   49 1
  31   18   19 am
  32   18   50 1
  33   19   20 1
  34   19   21 2
  35   20   24 1
  36   20   51 1
  37   20   52 1
  38   22   53 1
  39   22   54 1
  40   23   35 1
  41   23   26 1
  42   23   55 1
  43   24   25 1
  44   24   30 1
  45   24   56 1
  46   25   28 ar
  47   25   31 ar
  48   26   37 ar
  49   26   41 ar
  50   27   57 1
  51   27   58 1
  52   28   29 1
  53   28   34 ar
  54   29   30 1
  55   30   59 1
  56   30   60 1
  57   31   32 ar
  58   31   61 1
  59   32   33 ar
  60   32   62 1
  61   33   34 ar
  62   33   63 1
  63   34   64 1
  64   35   36 1
  65   35   65 1
  66   35   66 1
  67   36   37 1
  68   37   38 ar
  69   38   39 ar
  70   38   67 1
  71   39   40 ar
  72   39   68 1
  73   40   41 ar
  74   40   69 1
  75   41   70 1

#	End of record

