#	Name: ASD03731026
#	Creating user name:	WinNT
#	Creation time:	15. 06. 2019 20:45

#	Modifying user name:	WinNT
#	Modification time:	15. 06. 2019 20:45

#	Program:	/corina/corina34_cracker 3.40 0067  02.08.2006

@<TRIPOS>MOLECULE
ASD03731026
  46   51    0    0    0
SMALL
NO_CHARGES


@<TRIPOS>ATOM
   1 O1             0.3237     1.5851    -1.4233 O.3     
   2 C2             0.4035     0.1715    -1.6849 C.3     
   3 O3             1.7126     0.0028    -2.2596 O.3     
   4 C4             2.4680     1.0221    -1.7543 C.ar    
   5 C5             1.6135     1.9952    -1.2411 C.ar    
   6 C6             3.8381     1.2006    -1.6889 C.ar    
   7 C7             4.3727     2.3497    -1.1140 C.ar    
   8 C8             3.5090     3.3185    -0.6122 C.ar    
   9 C9             2.1424     3.1405    -0.6703 C.ar    
  10 O10            5.6760     2.7098    -0.9358 O.3     
  11 C11            4.3735     4.4352    -0.0911 C.3     
  12 C12            5.7487     4.1292    -0.7000 C.3     
  13 N13            3.6537     6.4806     0.6316 N.am    
  14 C14            3.8664     5.7867    -0.5044 C.2     
  15 C15            4.4199     4.4689     1.4077 C.ar    
  16 C16            4.7916     3.5553     2.3687 C.ar    
  17 C17            4.7218     3.8921     3.7087 C.ar    
  18 C18            4.2778     5.1481     4.0804 C.ar    
  19 C19            3.9036     6.0664     3.1217 C.ar    
  20 C20            3.9709     5.7362     1.7704 C.ar    
  21 O21            3.6843     6.1777    -1.6380 O.2     
  22 C22            3.1494     7.8556     0.6678 C.3     
  23 O23            1.7462     7.8555     0.3974 O.3     
  24 C24            1.1332     9.0660     0.3171 C.ar    
  25 C25           -0.2022     9.1453    -0.0501 C.ar    
  26 C26           -0.8236    10.3764    -0.1307 C.ar    
  27 C27           -0.1148    11.5301     0.1546 C.ar    
  28 C28            1.2172    11.4531     0.5209 C.ar    
  29 C29            1.8406    10.2234     0.6078 C.ar    
  30 Cl30          -0.8978    13.0761     0.0520 Cl      
  31 H31            0.3164    -0.3950    -0.7577 H       
  32 H32           -0.3677    -0.1309    -2.3934 H       
  33 H33            4.4974     0.4430    -2.0863 H       
  34 H34            1.4833     3.8966    -0.2700 H       
  35 H35            6.5455     4.3641     0.0057 H       
  36 H36            5.8868     4.6706    -1.6359 H       
  37 H37            5.1376     2.5749     2.0761 H       
  38 H38            5.0128     3.1758     4.4628 H       
  39 H39            4.2236     5.4110     5.1265 H       
  40 H40            3.5572     7.0449     3.4200 H       
  41 H41            3.3293     8.2827     1.6543 H       
  42 H42            3.6646     8.4515    -0.0856 H       
  43 H43           -0.7556     8.2450    -0.2731 H       
  44 H44           -1.8631    10.4385    -0.4168 H       
  45 H45            1.7687    12.3546     0.7432 H       
  46 H46            2.8793    10.1634     0.8977 H       
@<TRIPOS>BOND
   1    1    2 1
   2    1    5 1
   3    2    3 1
   4    2   31 1
   5    2   32 1
   6    3    4 1
   7    4    5 ar
   8    4    6 ar
   9    5    9 ar
  10    6    7 ar
  11    6   33 1
  12    7    8 ar
  13    7   10 1
  14    8    9 ar
  15    8   11 1
  16    9   34 1
  17   10   12 1
  18   11   12 1
  19   11   14 1
  20   11   15 1
  21   12   35 1
  22   12   36 1
  23   13   14 am
  24   13   20 1
  25   13   22 1
  26   14   21 2
  27   15   16 ar
  28   15   20 ar
  29   16   17 ar
  30   16   37 1
  31   17   18 ar
  32   17   38 1
  33   18   19 ar
  34   18   39 1
  35   19   20 ar
  36   19   40 1
  37   22   23 1
  38   22   41 1
  39   22   42 1
  40   23   24 1
  41   24   25 ar
  42   24   29 ar
  43   25   26 ar
  44   25   43 1
  45   26   27 ar
  46   26   44 1
  47   27   28 ar
  48   27   30 1
  49   28   29 ar
  50   28   45 1
  51   29   46 1

#	End of record

