#	Name: ASD05060065
#	Creating user name:	WinNT
#	Creation time:	15. 06. 2019 20:56

#	Modifying user name:	WinNT
#	Modification time:	15. 06. 2019 20:56

#	Program:	/corina/corina34_cracker 3.40 0067  02.08.2006

@<TRIPOS>MOLECULE
ASD05060065
  63   66    0    0    0
SMALL
NO_CHARGES


@<TRIPOS>ATOM
   1 C1            -2.4895    -2.9976    -0.0318 C.2     
   2 C2            -1.2333    -2.2165     0.0418 C.2     
   3 C3            -0.0394    -2.8484    -0.0228 C.2     
   4 C4             1.1966    -2.0694    -0.1582 C.2     
   5 O5            -2.4474    -4.2062    -0.1502 O.2     
   6 N6            -3.6793    -2.3684     0.0382 N.am    
   7 O7             1.1416    -0.8652    -0.3306 O.2     
   8 C8            -4.9219    -3.1410    -0.0345 C.3     
   9 C9            -6.0659    -2.2517    -0.5524 C.3     
  10 C10           -7.1333    -2.2143     0.5607 C.3     
  11 C11           -6.3457    -2.5421     1.8535 C.3     
  12 C12           -5.3340    -3.6129     1.3751 C.3     
  13 O13           -6.6207    -2.8123    -1.7440 O.3     
  14 O14           -1.2802    -0.8703     0.1738 O.3     
  15 C15            3.7061    -1.9899    -0.1052 C.2     
  16 C16            2.5020    -2.7429    -0.0856 C.2     
  17 C17            2.5798    -4.1325     0.0042 C.2     
  18 C18            3.8349    -4.7350     0.0716 C.2     
  19 C19            4.9595    -3.9732     0.0496 C.2     
  20 N20            4.8923    -2.6236    -0.0369 N.am    
  21 O21            3.6660    -0.7747    -0.1881 O.2     
  22 C22            3.9446    -6.2348     0.1696 C.3     
  23 C23            3.8250    -6.6540     1.6122 C.ar    
  24 C24            2.5749    -6.8415     2.1777 C.ar    
  25 C25            2.4666    -7.2265     3.5030 C.ar    
  26 C26            3.6060    -7.4234     4.2603 C.ar    
  27 C27            4.8533    -7.2356     3.6949 C.ar    
  28 C28            4.9628    -6.8569     2.3696 C.ar    
  29 F29            1.4619    -6.6483     1.4367 F       
  30 C30            6.1301    -1.8402    -0.0582 C.3     
  31 C31            6.5214    -1.4810     1.3521 C.ar    
  32 C32            7.3417    -2.3257     2.0798 C.ar    
  33 C33            7.7006    -1.9945     3.3756 C.ar    
  34 C34            7.2401    -0.8211     3.9423 C.ar    
  35 C35            6.4210     0.0231     3.2166 C.ar    
  36 C36            6.0655    -0.3032     1.9187 C.ar    
  37 F37            5.2697     0.5251     1.2075 F       
  38 F38            7.7917    -3.4730     1.5262 F       
  39 H39            0.0043    -3.9265     0.0252 H       
  40 H40           -3.7129    -1.4040     0.1368 H       
  41 H41           -4.7898    -4.0002    -0.6922 H       
  42 H42           -5.6966    -1.2453    -0.7495 H       
  43 H43           -7.5803    -1.2224     0.6275 H       
  44 H44           -7.8999    -2.9678     0.3796 H       
  45 H45           -5.8264    -1.6583     2.2240 H       
  46 H46           -7.0084    -2.9503     2.6166 H       
  47 H47           -5.8100    -4.5923     1.3256 H       
  48 H48           -4.4679    -3.6417     2.0362 H       
  49 H49           -7.3474    -2.2969    -2.1198 H       
  50 H50           -0.4155    -0.4575     0.3042 H       
  51 H51            1.6818    -4.7322     0.0216 H       
  52 H52            5.9255    -4.4532     0.1025 H       
  53 H53            3.1453    -6.6962    -0.4103 H       
  54 H54            4.9098    -6.5549    -0.2229 H       
  55 H55            1.4922    -7.3727     3.9452 H       
  56 H56            3.5217    -7.7238     5.2942 H       
  57 H57            5.7430    -7.3890     4.2875 H       
  58 H58            5.9379    -6.7155     1.9274 H       
  59 H59            6.9246    -2.4287    -0.5170 H       
  60 H60            5.9735    -0.9288    -0.6351 H       
  61 H61            8.3404    -2.6536     3.9437 H       
  62 H62            7.5203    -0.5638     4.9531 H       
  63 H63            6.0615     0.9396     3.6606 H       
@<TRIPOS>BOND
   1    1    2 1
   2    1    5 2
   3    1    6 am
   4    2    3 2
   5    2   14 1
   6    3    4 1
   7    3   39 1
   8    4    7 2
   9    4   16 1
  10    6    8 1
  11    6   40 1
  12    8    9 1
  13    8   12 1
  14    8   41 1
  15    9   10 1
  16    9   13 1
  17    9   42 1
  18   10   11 1
  19   10   43 1
  20   10   44 1
  21   11   12 1
  22   11   45 1
  23   11   46 1
  24   12   47 1
  25   12   48 1
  26   13   49 1
  27   14   50 1
  28   15   16 1
  29   15   20 am
  30   15   21 2
  31   16   17 2
  32   17   18 1
  33   17   51 1
  34   18   19 2
  35   18   22 1
  36   19   20 1
  37   19   52 1
  38   20   30 1
  39   22   23 1
  40   22   53 1
  41   22   54 1
  42   23   24 ar
  43   23   28 ar
  44   24   25 ar
  45   24   29 1
  46   25   26 ar
  47   25   55 1
  48   26   27 ar
  49   26   56 1
  50   27   28 ar
  51   27   57 1
  52   28   58 1
  53   30   31 1
  54   30   59 1
  55   30   60 1
  56   31   32 ar
  57   31   36 ar
  58   32   33 ar
  59   32   38 1
  60   33   34 ar
  61   33   61 1
  62   34   35 ar
  63   34   62 1
  64   35   36 ar
  65   35   63 1
  66   36   37 1

#	End of record

