#	Name: ASD01901133
#	Creating user name:	WinNT
#	Creation time:	15. 06. 2019 19:53

#	Modifying user name:	WinNT
#	Modification time:	15. 06. 2019 19:53

#	Program:	/corina/corina34_cracker 3.40 0067  02.08.2006

@<TRIPOS>MOLECULE
ASD01901133
  54   58    0    0    0
SMALL
NO_CHARGES


@<TRIPOS>ATOM
   1 C1            -0.0166     1.3750     0.0096 C.ar    
   2 C2             0.0021    -0.0041     0.0020 C.ar    
   3 C3             1.2078    -0.6830    -0.0131 C.ar    
   4 C4             2.4027     0.0149    -0.0208 C.ar    
   5 C5             2.3997     1.3941    -0.0129 C.ar    
   6 C6             1.1860     2.0866     0.0019 C.ar    
   7 C7             1.1748     3.5185     0.0093 C.1     
   8 C8             1.1655     4.6925     0.0153 C.1     
   9 C9             1.1543     6.1244     0.0226 C.ar    
  10 C10            2.3583     6.8345     0.0149 C.ar    
  11 C11            2.3436     8.2144     0.0221 C.ar    
  12 C12            1.1325     8.8988     0.0369 C.ar    
  13 C13           -0.0678     8.1953     0.0446 C.ar    
  14 C14           -0.0608     6.8154     0.0317 C.ar    
  15 N15            1.1215    10.3012     0.0446 N.am    
  16 C16            1.1055    10.9702    -1.1228 C.2     
  17 C17            1.1941    12.4757    -1.1295 C.3     
  18 C18            0.4697    13.0276     0.1005 C.3     
  19 N19            0.8781    12.2743     1.2877 N.am    
  20 C20            1.1214    10.9565     1.2173 C.2     
  21 O21            1.0204    10.3630    -2.1688 O.2     
  22 O22            1.3520    10.3418     2.2402 O.2     
  23 C23            0.8348    14.5023     0.2818 C.3     
  24 C24           -1.0199    12.8987    -0.0881 C.2     
  25 N25           -1.4865    12.3705    -1.1883 N.2     
  26 N26           -2.8642    12.2397    -1.3874 N.pl3   
  27 C27           -3.7404    12.6684    -0.4218 C.2     
  28 C28           -3.2324    13.2361     0.7617 C.2     
  29 C29           -1.8841    13.3417     0.9208 C.2     
  30 F30           -1.2416     8.8640     0.0590 F       
  31 F31            3.5068     8.9015     0.0151 F       
  32 C32            1.0177    12.9681     2.5704 C.3     
  33 C33           -3.6117    11.7397    -2.4111 C.2     
  34 C34           -4.9124    11.8696    -2.0585 C.2     
  35 N35           -4.9720    12.4336    -0.8516 N.2     
  36 H36           -0.9584     1.9035     0.0169 H       
  37 H37           -0.9266    -0.5554     0.0083 H       
  38 H38            1.2163    -1.7630    -0.0187 H       
  39 H39            3.3399    -0.5217    -0.0326 H       
  40 H40            3.3330     1.9375    -0.0185 H       
  41 H41            3.2989     6.3039     0.0038 H       
  42 H42           -0.9929     6.2700     0.0328 H       
  43 H43            2.2407    12.7790    -1.1023 H       
  44 H44            0.7248    12.8641    -2.0334 H       
  45 H45            1.9121    14.5957     0.4186 H       
  46 H46            0.5307    15.0631    -0.6020 H       
  47 H47            0.3215    14.8985     1.1579 H       
  48 H48           -3.9031    13.5803     1.5351 H       
  49 H49           -1.4804    13.7718     1.8255 H       
  50 H50            0.0667    12.9429     3.1025 H       
  51 H51            1.7824    12.4737     3.1695 H       
  52 H52            1.3078    14.0038     2.3937 H       
  53 H53           -3.2366    11.3186    -3.3322 H       
  54 H54           -5.7603    11.5670    -2.6551 H       
@<TRIPOS>BOND
   1    1    2 ar
   2    1    6 ar
   3    1   36 1
   4    2    3 ar
   5    2   37 1
   6    3    4 ar
   7    3   38 1
   8    4    5 ar
   9    4   39 1
  10    5    6 ar
  11    5   40 1
  12    6    7 1
  13    7    8 3
  14    8    9 1
  15    9   10 ar
  16    9   14 ar
  17   10   11 ar
  18   10   41 1
  19   11   12 ar
  20   11   31 1
  21   12   13 ar
  22   12   15 1
  23   13   14 ar
  24   13   30 1
  25   14   42 1
  26   15   16 am
  27   15   20 am
  28   16   17 1
  29   16   21 2
  30   17   18 1
  31   17   43 1
  32   17   44 1
  33   18   19 1
  34   18   23 1
  35   18   24 1
  36   19   20 am
  37   19   32 1
  38   20   22 2
  39   23   45 1
  40   23   46 1
  41   23   47 1
  42   24   25 2
  43   24   29 1
  44   25   26 1
  45   26   27 1
  46   26   33 1
  47   27   28 1
  48   27   35 2
  49   28   29 2
  50   28   48 1
  51   29   49 1
  52   32   50 1
  53   32   51 1
  54   32   52 1
  55   33   34 2
  56   33   53 1
  57   34   35 1
  58   34   54 1

#	End of record

