#	Name: ASD04590249
#	Creating user name:	WinNT
#	Creation time:	15. 06. 2019 20:50

#	Modifying user name:	WinNT
#	Modification time:	15. 06. 2019 20:50

#	Program:	/corina/corina34_cracker 3.40 0067  02.08.2006

@<TRIPOS>MOLECULE
ASD04590249
  46   48    0    0    0
SMALL
NO_CHARGES


@<TRIPOS>ATOM
   1 N1            -0.0169     1.3950     0.0097 N.pl3   
   2 N2             0.0021    -0.0041     0.0020 N.2     
   3 C3             1.2467    -0.4104    -0.0120 C.2     
   4 C4             2.0789     0.7380    -0.0138 C.2     
   5 C5             1.2484     1.8413     0.0000 C.2     
   6 N6             1.6782    -1.7391    -0.0229 N.am    
   7 C7             3.5511     0.7515    -0.0274 C.2     
   8 O8             4.1687    -0.2962    -0.0385 O.2     
   9 N9             4.2143     1.9248    -0.0275 N.am    
  10 C10            5.6792     1.9381    -0.0410 C.3     
  11 C11            6.1733     3.2538    -0.6487 C.3     
  12 C12            7.7027     3.2880    -0.6043 C.3     
  13 N13            8.1560     3.1701     0.7874 N.3     
  14 C14            7.7337     1.8934     1.3772 C.3     
  15 C15            6.2052     1.8176     1.3920 C.3     
  16 C16            0.7763    -2.7406    -0.0197 C.2     
  17 O17           -0.4132    -2.4877    -0.0074 O.2     
  18 C18            1.2315    -4.1421    -0.0311 C.ar    
  19 C19            1.4382    -4.8069    -1.2482 C.ar    
  20 C20            1.8665    -6.1253    -1.2471 C.ar    
  21 C21            2.0883    -6.7820    -0.0522 C.ar    
  22 C22            1.8863    -6.1321     1.1531 C.ar    
  23 C23            1.4658    -4.8165     1.1729 C.ar    
  24 O24            1.2196    -4.1627    -2.4218 O.3     
  25 F25            1.2698    -4.1858     2.3515 F       
  26 C26            1.4513    -4.9037    -3.6215 C.3     
  27 H27           -0.8125     1.9499     0.0167 H       
  28 H28            1.5606     2.8752     0.0019 H       
  29 H29            2.6270    -1.9408    -0.0327 H       
  30 H30            3.7217     2.7603    -0.0186 H       
  31 H31            6.0456     1.1017    -0.6361 H       
  32 H32            5.8376     3.3256    -1.6832 H       
  33 H33            5.7739     4.0915    -0.0769 H       
  34 H34            8.1015     2.4581    -1.1877 H       
  35 H35            8.0572     4.2297    -1.0233 H       
  36 H36            9.1563     3.2854     0.8529 H       
  37 H37            8.1324     1.0700     0.7845 H       
  38 H38            8.1107     1.8222     2.3974 H       
  39 H39            5.8063     2.6326     1.9959 H       
  40 H40            5.8923     0.8632     1.8154 H       
  41 H41            2.0267    -6.6404    -2.1827 H       
  42 H42            2.4212    -7.8094    -0.0584 H       
  43 H43            2.0626    -6.6543     2.0819 H       
  44 H44            1.2395    -4.2729    -4.4848 H       
  45 H45            2.4919    -5.2265    -3.6540 H       
  46 H46            0.7992    -5.7769    -3.6409 H       
@<TRIPOS>BOND
   1    1    2 1
   2    1    5 1
   3    1   27 1
   4    2    3 2
   5    3    4 1
   6    3    6 1
   7    4    5 2
   8    4    7 1
   9    5   28 1
  10    6   16 am
  11    6   29 1
  12    7    8 2
  13    7    9 am
  14    9   10 1
  15    9   30 1
  16   10   11 1
  17   10   15 1
  18   10   31 1
  19   11   12 1
  20   11   32 1
  21   11   33 1
  22   12   13 1
  23   12   34 1
  24   12   35 1
  25   13   14 1
  26   13   36 1
  27   14   15 1
  28   14   37 1
  29   14   38 1
  30   15   39 1
  31   15   40 1
  32   16   17 2
  33   16   18 1
  34   18   19 ar
  35   18   23 ar
  36   19   20 ar
  37   19   24 1
  38   20   21 ar
  39   20   41 1
  40   21   22 ar
  41   21   42 1
  42   22   23 ar
  43   22   43 1
  44   23   25 1
  45   24   26 1
  46   26   44 1
  47   26   45 1
  48   26   46 1

#	End of record

