#	Name: ASD09116048
#	Creating user name:	WinNT
#	Creation time:	15. 06. 2019 21:20

#	Modifying user name:	WinNT
#	Modification time:	15. 06. 2019 21:20

#	Program:	/corina/corina34_cracker 3.40 0067  02.08.2006

@<TRIPOS>MOLECULE
ASD09116048
  28   29    0    0    0
SMALL
NO_CHARGES


@<TRIPOS>ATOM
   1 C1            -0.0163     1.3542     0.0095 C.2     
   2 C2             0.0021    -0.0041     0.0020 C.2     
   3 C3            -1.3130    -0.7380     0.0250 C.3     
   4 C4            -1.5494    -1.2862     1.4309 C.3     
   5 C5            -1.5248    -0.1043     2.4368 C.3     
   6 C6            -2.5913     0.9128     1.9920 C.3     
   7 C7            -1.9371     2.1399     1.3921 C.3     
   8 C8            -1.3616     2.0282     0.0156 C.3     
   9 C9             1.1751     2.0806     0.0020 C.2     
  10 C10            2.3613     1.4027    -0.0168 C.2     
  11 C11            2.3493    -0.0025    -0.0298 C.2     
  12 N12            1.1804    -0.6731    -0.0219 N.am    
  13 O13            3.4028    -0.6187    -0.0487 O.2     
  14 H14           -2.1182    -0.0526    -0.2397 H       
  15 H15           -1.2836    -1.5620    -0.6879 H       
  16 H16           -2.5197    -1.7811     1.4719 H       
  17 H17           -0.7628    -1.9974     1.6830 H       
  18 H18           -1.7555    -0.4670     3.4385 H       
  19 H19           -0.5413     0.3654     2.4307 H       
  20 H20           -3.2404     0.4512     1.2479 H       
  21 H21           -3.1880     1.2089     2.8548 H       
  22 H22           -2.6792     2.9381     1.3778 H       
  23 H23           -1.1358     2.4501     2.0627 H       
  24 H24           -1.2573     3.0281    -0.4057 H       
  25 H25           -2.0468     1.4541    -0.6081 H       
  26 H26            1.1599     3.1604     0.0106 H       
  27 H27            3.2977     1.9408    -0.0220 H       
  28 H28            1.1825    -1.6430    -0.0335 H       
@<TRIPOS>BOND
   1    1    2 2
   2    1    9 1
   3    1    8 1
   4    2    3 1
   5    2   12 1
   6    3    4 1
   7    3   14 1
   8    3   15 1
   9    4    5 1
  10    4   16 1
  11    4   17 1
  12    5    6 1
  13    5   18 1
  14    5   19 1
  15    6    7 1
  16    6   20 1
  17    6   21 1
  18    7    8 1
  19    7   22 1
  20    7   23 1
  21    8   24 1
  22    8   25 1
  23    9   10 2
  24    9   26 1
  25   10   11 1
  26   10   27 1
  27   11   12 am
  28   11   13 2
  29   12   28 1

#	End of record

