#	Name: ASD01811471
#	Creating user name:	WinNT
#	Creation time:	15. 06. 2019 19:26

#	Modifying user name:	WinNT
#	Modification time:	15. 06. 2019 19:26

#	Program:	/corina/corina34_cracker 3.40 0067  02.08.2006

@<TRIPOS>MOLECULE
ASD01811471
  45   49    0    0    0
SMALL
NO_CHARGES


@<TRIPOS>ATOM
   1 C1            -0.3975     1.6457    -0.2791 C.ar    
   2 C2            -0.6442     0.2860    -0.3175 C.ar    
   3 C3             0.3973    -0.6152    -0.1054 C.ar    
   4 C4             1.6835    -0.1408     0.1445 C.ar    
   5 C5             1.9209     1.2207     0.1810 C.ar    
   6 C6             0.8825     2.1127    -0.0303 C.ar    
   7 C7             0.1375    -2.0750    -0.1450 C.ar    
   8 C8             1.1784    -2.9521     0.0668 C.ar    
   9 C9             0.9317    -4.3390     0.0291 C.ar    
  10 C10           -1.4591    -3.8578    -0.4386 C.ar    
  11 C11           -1.1686    -2.5368    -0.3926 C.ar    
  12 C12            1.7113    -5.4706     0.1915 C.2     
  13 N13            0.9186    -6.5406     0.0438 N.pl3   
  14 N14           -0.3936    -6.1309    -0.2176 N.2     
  15 C15           -0.4364    -4.8112    -0.2365 C.ar    
  16 C16            1.1464     3.5959     0.0105 C.3     
  17 N17            1.0308     4.0747     1.3902 N.am    
  18 N18            0.8250     4.9830     4.0121 N.2     
  19 C19            2.0373     4.6907     3.4978 C.ar    
  20 C20            2.1544     4.2308     2.1740 C.ar    
  21 C21           -0.1782     4.3757     1.9137 C.2     
  22 C22           -0.2569     4.8530     3.3003 C.2     
  23 N23            3.1301     4.8334     4.2510 N.ar    
  24 C24            4.3273     4.5598     3.7880 C.ar    
  25 C25            4.5146     4.1082     2.4874 C.ar    
  26 C26            3.4191     3.9353     1.6636 C.ar    
  27 C27            1.3605    -7.9340     0.1413 C.3     
  28 O28           -1.1882     4.2533     1.2448 O.2     
  29 F29           -1.4054     2.5203    -0.4902 F       
  30 F30            3.1674     1.6818     0.4232 F       
  31 H31           -1.6427    -0.0773    -0.5111 H       
  32 H32            2.4936    -0.8356     0.3098 H       
  33 H33            2.1740    -2.5804     0.2594 H       
  34 H34           -2.4712    -4.1827    -0.6297 H       
  35 H35           -1.9596    -1.8184    -0.5495 H       
  36 H36            2.7709    -5.4881     0.3998 H       
  37 H37            2.1514     3.7965    -0.3608 H       
  38 H38            0.4181     4.1118    -0.6153 H       
  39 H39           -1.2171     5.0928     3.7327 H       
  40 H40            5.1850     4.6892     4.4314 H       
  41 H41            5.5081     3.8889     2.1252 H       
  42 H42            3.5383     3.5802     0.6507 H       
  43 H43            1.2719    -8.2719     1.1739 H       
  44 H44            0.7382    -8.5583    -0.4999 H       
  45 H45            2.4002    -8.0086    -0.1775 H       
@<TRIPOS>BOND
   1    1    2 ar
   2    1    6 ar
   3    1   29 1
   4    2    3 ar
   5    2   31 1
   6    3    4 ar
   7    3    7 1
   8    4    5 ar
   9    4   32 1
  10    5    6 ar
  11    5   30 1
  12    6   16 1
  13    7    8 ar
  14    7   11 ar
  15    8    9 ar
  16    8   33 1
  17    9   12 2
  18    9   15 ar
  19   10   11 ar
  20   10   15 ar
  21   10   34 1
  22   11   35 1
  23   12   13 1
  24   12   36 1
  25   13   14 1
  26   13   27 1
  27   14   15 2
  28   16   17 1
  29   16   37 1
  30   16   38 1
  31   17   21 am
  32   17   20 1
  33   18   19 1
  34   18   22 2
  35   19   20 ar
  36   19   23 ar
  37   20   26 ar
  38   21   22 1
  39   21   28 2
  40   22   39 1
  41   23   24 ar
  42   24   25 ar
  43   24   40 1
  44   25   26 ar
  45   25   41 1
  46   26   42 1
  47   27   43 1
  48   27   44 1
  49   27   45 1

#	End of record

