#	Name: ASD00061024
#	Creating user name:	WinNT
#	Creation time:	15. 06. 2019 18:29

#	Modifying user name:	WinNT
#	Modification time:	15. 06. 2019 18:29

#	Program:	/corina/corina34_cracker 3.40 0067  02.08.2006

@<TRIPOS>MOLECULE
ASD00061024
  39   40    0    0    0
SMALL
NO_CHARGES


@<TRIPOS>ATOM
   1 C1             0.3165     3.8871     0.4107 C.ar    
   2 C2             0.8562     2.6145     0.4948 C.ar    
   3 C3             0.0306     1.5036     0.4938 C.ar    
   4 C4            -1.3370     1.6564     0.4090 C.ar    
   5 C5            -1.8905     2.9381     0.3242 C.ar    
   6 C6            -1.0511     4.0563     0.3314 C.ar    
   7 C7            -3.3493     3.1091     0.2329 C.2     
   8 C8            -3.9417     4.4918     0.1417 C.3     
   9 O9            -4.0747     2.1375     0.2310 O.2     
  10 C10           -5.4502     4.3861    -0.0909 C.3     
  11 C11           -6.0625     5.7625    -0.0497 C.ar    
  12 C12           -7.0339     6.0591     0.8881 C.ar    
  13 C13           -7.5956     7.3216     0.9258 C.ar    
  14 C14           -7.1855     8.2877     0.0262 C.ar    
  15 C15           -6.2135     7.9914    -0.9110 C.ar    
  16 C16           -5.6487     6.7302    -0.9459 C.ar    
  17 Cl17           1.3620     5.2730     0.4123 Cl      
  18 C18           -5.7122     3.7521    -1.4585 C.3     
  19 C19           -7.1939     3.7452    -1.7334 C.2     
  20 O20           -7.6261     4.2764    -2.7288 O.2     
  21 O21           -8.0334     3.1488    -0.8724 O.3     
  22 C22           -5.0071     4.5496    -2.5252 C.2     
  23 O23           -5.6172     5.3708    -3.1681 O.2     
  24 O24           -3.7013     4.3475    -2.7612 O.3     
  25 H25            1.9267     2.4881     0.5611 H       
  26 H26            0.4589     0.5143     0.5593 H       
  27 H27           -1.9795     0.7882     0.4076 H       
  28 H28           -1.4711     5.0492     0.2663 H       
  29 H29           -3.7541     5.0295     1.0711 H       
  30 H30           -3.4829     5.0296    -0.6880 H       
  31 H31           -5.8954     3.7670     0.6879 H       
  32 H32           -7.3542     5.3043     1.5909 H       
  33 H33           -8.3550     7.5531     1.6580 H       
  34 H34           -7.6249     9.2739     0.0552 H       
  35 H35           -5.8934     8.7461    -1.6141 H       
  36 H36           -4.8892     6.4987    -1.6781 H       
  37 H37           -5.3371     2.7287    -1.4623 H       
  38 H38           -8.9798     3.2343    -1.0516 H       
  39 H39           -3.2926     4.8828    -3.4552 H       
@<TRIPOS>BOND
   1    1    2 ar
   2    1   17 1
   3    1    6 ar
   4    2    3 ar
   5    2   25 1
   6    3    4 ar
   7    3   26 1
   8    4    5 ar
   9    4   27 1
  10    5    6 ar
  11    5    7 1
  12    6   28 1
  13    7    8 1
  14    7    9 2
  15    8   10 1
  16    8   29 1
  17    8   30 1
  18   10   11 1
  19   10   18 1
  20   10   31 1
  21   11   12 ar
  22   11   16 ar
  23   12   13 ar
  24   12   32 1
  25   13   14 ar
  26   13   33 1
  27   14   15 ar
  28   14   34 1
  29   15   16 ar
  30   15   35 1
  31   16   36 1
  32   18   19 1
  33   18   22 1
  34   18   37 1
  35   19   20 2
  36   19   21 1
  37   21   38 1
  38   22   23 2
  39   22   24 1
  40   24   39 1

#	End of record

