#	Name: ASD01001142
#	Creating user name:	WinNT
#	Creation time:	15. 06. 2019 18:55

#	Modifying user name:	WinNT
#	Modification time:	15. 06. 2019 18:55

#	Program:	/corina/corina34_cracker 3.40 0067  02.08.2006

@<TRIPOS>MOLECULE
ASD01001142
  58   59    0    0    0
SMALL
NO_CHARGES


@<TRIPOS>ATOM
   1 C1            -0.0390     1.2909     0.0316 C.2     
   2 N2             0.0316    -0.0543    -0.0110 N.am    
   3 C3             1.3617    -0.6852    -0.0510 C.3     
   4 C4             2.5611     0.2408    -0.0409 C.2     
   5 C5             2.3281     1.5708     0.0037 C.2     
   6 N6             1.0555     2.0621     0.0385 N.am    
   7 C7             3.8794    -0.2698    -0.0766 C.2     
   8 O8             4.8240     0.4909    -0.1758 O.2     
   9 O9             4.0898    -1.6006    -0.0005 O.3     
  10 S10           -1.5788     2.0383     0.0712 S.2     
  11 C11            3.4925     2.5273     0.0153 C.3     
  12 C12            1.4753    -1.6056     1.1369 C.ar    
  13 C13            2.0888    -2.8360     1.0006 C.ar    
  14 C14            2.1931    -3.6826     2.0944 C.ar    
  15 C15            1.6806    -3.2913     3.3230 C.ar    
  16 C16            1.0681    -2.0603     3.4541 C.ar    
  17 C17            0.9705    -1.2157     2.3634 C.ar    
  18 O18            2.7957    -4.8936     1.9628 O.3     
  19 C19            5.4469    -2.0463    -0.0424 C.3     
  20 C20            5.4857    -3.5726     0.0554 C.3     
  21 O21            4.8656    -4.1399    -1.1004 O.3     
  22 C22            4.8488    -5.5688    -1.1087 C.3     
  23 C23            4.1652    -6.0634    -2.3850 C.3     
  24 O24            4.9473    -5.6880    -3.5204 O.3     
  25 C25            4.3942    -6.1041    -4.7706 C.3     
  26 C26            5.3097    -5.6508    -5.9095 C.3     
  27 O27            6.5654    -6.3252    -5.8085 O.3     
  28 C28            7.4991    -5.9714    -6.8308 C.3     
  29 C29            8.8003    -6.7494    -6.6246 C.3     
  30 O30            8.5541    -8.1456    -6.8042 O.3     
  31 H31           -0.7743    -0.5940    -0.0149 H       
  32 H32            1.4167    -1.2966    -0.9517 H       
  33 H33            0.9371     3.0244     0.0700 H       
  34 H34            3.8243     2.7081    -1.0071 H       
  35 H35            3.1845     3.4692     0.4692 H       
  36 H36            4.3109     2.0965     0.5921 H       
  37 H37            2.4867    -3.1384     0.0432 H       
  38 H38            1.7602    -3.9489     4.1760 H       
  39 H39            0.6687    -1.7554     4.4101 H       
  40 H40            0.4955    -0.2515     2.4691 H       
  41 H41            3.7476    -4.8797     2.1327 H       
  42 H42            5.9042    -1.7305    -0.9802 H       
  43 H43            5.9971    -1.6145     0.7936 H       
  44 H44            6.5216    -3.9068     0.1128 H       
  45 H45            4.9504    -3.8932     0.9491 H       
  46 H46            5.8715    -5.9444    -1.0753 H       
  47 H47            4.3003    -5.9307    -0.2390 H       
  48 H48            4.0727    -7.1489    -2.3503 H       
  49 H49            3.1740    -5.6166    -2.4628 H       
  50 H50            4.3065    -7.1905    -4.7854 H       
  51 H51            3.4078    -5.6582    -4.8979 H       
  52 H52            4.8449    -5.8895    -6.8662 H       
  53 H53            5.4687    -4.5746    -5.8414 H       
  54 H54            7.0798    -6.2168    -7.8066 H       
  55 H55            7.7036    -4.9019    -6.7818 H       
  56 H56            9.5423    -6.4151    -7.3497 H       
  57 H57            9.1730    -6.5731    -5.6156 H       
  58 H58            9.3370    -8.7011    -6.6881 H       
@<TRIPOS>BOND
   1    1    2 am
   2    1    6 am
   3    1   10 2
   4    2    3 1
   5    2   31 1
   6    3    4 1
   7    3   12 1
   8    3   32 1
   9    4    5 2
  10    4    7 1
  11    5    6 1
  12    5   11 1
  13    6   33 1
  14    7    8 2
  15    7    9 1
  16    9   19 1
  17   11   34 1
  18   11   35 1
  19   11   36 1
  20   12   13 ar
  21   12   17 ar
  22   13   14 ar
  23   13   37 1
  24   14   15 ar
  25   14   18 1
  26   15   16 ar
  27   15   38 1
  28   16   17 ar
  29   16   39 1
  30   17   40 1
  31   18   41 1
  32   19   20 1
  33   19   42 1
  34   19   43 1
  35   20   21 1
  36   20   44 1
  37   20   45 1
  38   21   22 1
  39   22   23 1
  40   22   46 1
  41   22   47 1
  42   23   24 1
  43   23   48 1
  44   23   49 1
  45   24   25 1
  46   25   26 1
  47   25   50 1
  48   25   51 1
  49   26   27 1
  50   26   52 1
  51   26   53 1
  52   27   28 1
  53   28   29 1
  54   28   54 1
  55   28   55 1
  56   29   30 1
  57   29   56 1
  58   29   57 1
  59   30   58 1

#	End of record

