#	Name: ASD01917039
#	Creating user name:	WinNT
#	Creation time:	15. 06. 2019 20:08

#	Modifying user name:	WinNT
#	Modification time:	15. 06. 2019 20:08

#	Program:	/corina/corina34_cracker 3.40 0067  02.08.2006

@<TRIPOS>MOLECULE
ASD01917039
  41   43    0    0    0
SMALL
NO_CHARGES


@<TRIPOS>ATOM
   1 C1            -0.0119     1.4205    -0.4275 C.ar    
   2 C2            -0.0206     0.0460    -0.2817 C.ar    
   3 C3             1.1668    -0.6419    -0.0695 C.ar    
   4 C4             2.3651     0.0487    -0.0029 C.ar    
   5 C5             2.3750     1.4353    -0.1498 C.ar    
   6 C6             1.1774     2.1180    -0.3631 C.ar    
   7 C7             3.6519     2.1802    -0.0792 C.2     
   8 N8             4.8538     1.6734    -0.2546 N.2     
   9 C9             5.7731     2.6353    -0.1191 C.2     
  10 N10            5.1661     3.7723     0.1455 N.2     
  11 N11            3.7881     3.5032     0.1711 N.pl3   
  12 C12            2.7113     4.4631     0.4267 C.3     
  13 C13            2.2921     5.1050    -0.8707 C.2     
  14 O14            1.3135     6.0237    -0.8795 O.3     
  15 O15            2.8368     4.7927    -1.9029 O.2     
  16 C16            0.9619     6.5999    -2.1650 C.3     
  17 C17            7.2401     2.4501    -0.2457 C.ar    
  18 C18            7.7634     1.1903    -0.5293 C.ar    
  19 C19            8.0978     3.5368    -0.0870 C.ar    
  20 C20            9.4610     3.3603    -0.2060 C.ar    
  21 C21            9.9774     2.1048    -0.4829 C.ar    
  22 C22            9.1279     1.0226    -0.6467 C.ar    
  23 O23            1.1527    -1.9933     0.0732 O.3     
  24 C24           -0.1187    -2.6409    -0.0062 C.3     
  25 F25           11.3129     1.9363    -0.5987 F       
  26 H26           -0.9380     1.9498    -0.5968 H       
  27 H27           -0.9541    -0.4948    -0.3326 H       
  28 H28            3.2893    -0.4850     0.1628 H       
  29 H29            1.1808     3.1919    -0.4778 H       
  30 H30            1.8597     3.9449     0.8676 H       
  31 H31            3.0650     5.2312     1.1145 H       
  32 H32            1.8336     7.0965    -2.5913 H       
  33 H33            0.6283     5.8102    -2.8382 H       
  34 H34            0.1598     7.3257    -2.0307 H       
  35 H35            7.1019     0.3461    -0.6568 H       
  36 H36            7.6960     4.5158     0.1285 H       
  37 H37           10.1265     4.2020    -0.0835 H       
  38 H38            9.5346     0.0456    -0.8621 H       
  39 H39            0.0120    -3.7152     0.1239 H       
  40 H40           -0.7716    -2.2568     0.7776 H       
  41 H41           -0.5662    -2.4446    -0.9805 H       
@<TRIPOS>BOND
   1    1    2 ar
   2    1    6 ar
   3    1   26 1
   4    2    3 ar
   5    2   27 1
   6    3    4 ar
   7    3   23 1
   8    4    5 ar
   9    4   28 1
  10    5    6 ar
  11    5    7 1
  12    6   29 1
  13    7    8 2
  14    7   11 1
  15    8    9 1
  16    9   10 2
  17    9   17 1
  18   10   11 1
  19   11   12 1
  20   12   13 1
  21   12   30 1
  22   12   31 1
  23   13   14 1
  24   13   15 2
  25   14   16 1
  26   16   32 1
  27   16   33 1
  28   16   34 1
  29   17   18 ar
  30   17   19 ar
  31   18   22 ar
  32   18   35 1
  33   19   20 ar
  34   19   36 1
  35   20   21 ar
  36   20   37 1
  37   21   22 ar
  38   21   25 1
  39   22   38 1
  40   23   24 1
  41   24   39 1
  42   24   40 1
  43   24   41 1

#	End of record

