#	Name: ASD00170801
#	Creating user name:	WinNT
#	Creation time:	15. 06. 2019 18:32

#	Modifying user name:	WinNT
#	Modification time:	15. 06. 2019 18:32

#	Program:	/corina/corina34_cracker 3.40 0067  02.08.2006

@<TRIPOS>MOLECULE
ASD00170801
  63   67    0    0    0
SMALL
NO_CHARGES


@<TRIPOS>ATOM
   1 C1            -0.0958     1.2114     0.3904 C.2     
   2 C2             0.1581    -0.0979     0.5067 C.2     
   3 S3            -1.3296    -1.0266     0.4579 S.3     
   4 C4            -2.2881     0.3710     0.2795 C.2     
   5 C5            -1.5039     1.5038     0.2636 C.2     
   6 N6            -3.6622     0.3690     0.1714 N.pl3   
   7 C7            -2.0403     2.8582     0.1231 C.2     
   8 C8            -2.2956     3.6807     1.3251 C.ar    
   9 O9            -2.2764     3.3078    -0.9836 O.2     
  10 C10           -2.9045     4.9310     1.2023 C.ar    
  11 C11           -3.1400     5.6935     2.3269 C.ar    
  12 C12           -2.7737     5.2212     3.5765 C.ar    
  13 C13           -2.1693     3.9815     3.7045 C.ar    
  14 C14           -1.9339     3.2075     2.5878 C.ar    
  15 Cl15          -3.0729     6.1871     4.9876 Cl      
  16 C16            1.5076    -0.6814     0.6556 C.ar    
  17 C17            0.9763     2.2705     0.3974 C.3     
  18 N18            1.5347     2.4110    -0.9541 N.3     
  19 C19            2.4093     3.5886    -1.0428 C.3     
  20 C20            3.0319     3.6543    -2.4394 C.3     
  21 N21            1.9636     3.7182    -3.4466 N.3     
  22 C22            1.0890     2.5406    -3.3579 C.3     
  23 C23            0.4664     2.4749    -1.9613 C.3     
  24 C24            2.4945     3.8518    -4.7315 C.ar    
  25 C25            1.7674    -1.5943     1.6793 C.ar    
  26 C26            3.0291    -2.1355     1.8131 C.ar    
  27 C27            4.0371    -1.7747     0.9348 C.ar    
  28 C28            3.7857    -0.8693    -0.0823 C.ar    
  29 C29            2.5264    -0.3263    -0.2305 C.ar    
  30 C30            3.2658     2.8327    -5.2753 C.ar    
  31 C31            3.7889     2.9679    -6.5465 C.ar    
  32 C32            3.5459     4.1162    -7.2773 C.ar    
  33 C33            2.7783     5.1329    -6.7388 C.ar    
  34 C34            2.2476     5.0019    -5.4708 C.ar    
  35 Cl35           5.6225    -2.4597     1.1100 Cl      
  36 C36            1.4109     6.1100    -4.8851 C.3     
  37 F37            1.2226     7.1097    -5.8455 F       
  38 F38            0.1685     5.5993    -4.4938 F       
  39 F39            2.0647     6.6496    -3.7722 F       
  40 H40           -4.1435    -0.4717     0.1214 H       
  41 H41           -4.1479     1.2082     0.1452 H       
  42 H42           -3.1903     5.3005     0.2285 H       
  43 H43           -3.6107     6.6610     2.2332 H       
  44 H44           -1.8855     3.6186     4.6814 H       
  45 H45           -1.4625     2.2410     2.6889 H       
  46 H46            0.5461     3.2209     0.7133 H       
  47 H47            1.7676     1.9819     1.0892 H       
  48 H48            1.8243     4.4905    -0.8626 H       
  49 H49            3.1993     3.5119    -0.2957 H       
  50 H50            3.6583     4.5430    -2.5168 H       
  51 H51            3.6390     2.7651    -2.6091 H       
  52 H52            0.2990     2.6173    -4.1049 H       
  53 H53            1.6740     1.6387    -3.5380 H       
  54 H54           -0.1600     1.5863    -1.8838 H       
  55 H55           -0.1407     3.3641    -1.7915 H       
  56 H56            0.9823    -1.8760     2.3653 H       
  57 H57            3.2313    -2.8419     2.6046 H       
  58 H58            4.5759    -0.5914    -0.7640 H       
  59 H59            2.3314     0.3795    -1.0244 H       
  60 H60            3.4566     1.9358    -4.7048 H       
  61 H61            4.3887     2.1758    -6.9700 H       
  62 H62            3.9567     4.2196    -8.2708 H       
  63 H63            2.5907     6.0287    -7.3122 H       
@<TRIPOS>BOND
   1    1    2 2
   2    1   17 1
   3    1    5 1
   4    2    3 1
   5    2   16 1
   6    3    4 1
   7    4    5 2
   8    4    6 1
   9    5    7 1
  10    6   40 1
  11    6   41 1
  12    7    8 1
  13    7    9 2
  14    8   10 ar
  15    8   14 ar
  16   10   11 ar
  17   10   42 1
  18   11   12 ar
  19   11   43 1
  20   12   13 ar
  21   12   15 1
  22   13   14 ar
  23   13   44 1
  24   14   45 1
  25   16   25 ar
  26   16   29 ar
  27   17   18 1
  28   17   46 1
  29   17   47 1
  30   18   19 1
  31   18   23 1
  32   19   20 1
  33   19   48 1
  34   19   49 1
  35   20   21 1
  36   20   50 1
  37   20   51 1
  38   21   22 1
  39   21   24 1
  40   22   23 1
  41   22   52 1
  42   22   53 1
  43   23   54 1
  44   23   55 1
  45   24   30 ar
  46   24   34 ar
  47   25   26 ar
  48   25   56 1
  49   26   27 ar
  50   26   57 1
  51   27   28 ar
  52   27   35 1
  53   28   29 ar
  54   28   58 1
  55   29   59 1
  56   30   31 ar
  57   30   60 1
  58   31   32 ar
  59   31   61 1
  60   32   33 ar
  61   32   62 1
  62   33   34 ar
  63   33   63 1
  64   34   36 1
  65   36   37 1
  66   36   38 1
  67   36   39 1

#	End of record

