#	Name: ASD04880905
#	Creating user name:	WinNT
#	Creation time:	15. 06. 2019 20:53

#	Modifying user name:	WinNT
#	Modification time:	15. 06. 2019 20:53

#	Program:	/corina/corina34_cracker 3.40 0067  02.08.2006

@<TRIPOS>MOLECULE
ASD04880905
  81   85    0    0    0
SMALL
NO_CHARGES


@<TRIPOS>ATOM
   1 C1             0.1484     1.5248     0.4356 C.2     
   2 O2             0.0531     0.4236    -0.0705 O.2     
   3 N3             1.3642     2.0371     0.7107 N.am    
   4 C4             2.5127     1.2588     0.5160 C.ar    
   5 C5             3.7087     1.8638     0.1184 C.ar    
   6 C6             4.8490     1.0930    -0.0747 C.ar    
   7 C7             4.8050    -0.2694     0.1245 C.ar    
   8 C8             3.6127    -0.8806     0.5214 C.ar    
   9 C9             2.4658    -0.1066     0.7223 C.ar    
  10 C10            3.5656    -2.3398     0.7337 C.2     
  11 O11            2.5277    -2.8707     1.0791 O.2     
  12 N12            4.6731    -3.0843     0.5447 N.am    
  13 C13            4.6263    -4.5333     0.7555 C.3     
  14 C14            6.0053    -5.1341     0.4755 C.3     
  15 N15            3.7575     3.2404    -0.0849 N.3     
  16 C16            2.9325     3.6323    -1.2361 C.3     
  17 C17            2.9491     5.1563    -1.3770 C.3     
  18 N18            4.3350     5.6150    -1.5455 N.3     
  19 C19            5.1601     5.2230    -0.3943 C.3     
  20 C20            5.1434     3.6991    -0.2534 C.3     
  21 C21            4.3839     6.9959    -1.7494 C.ar    
  22 C22            3.8580     7.5472    -2.9112 C.ar    
  23 C23            3.9076     8.9128    -3.1094 C.ar    
  24 C24            4.4804     9.7316    -2.1532 C.ar    
  25 C25            5.0048     9.1862    -0.9959 C.ar    
  26 C26            4.9533     7.8216    -0.7887 C.ar    
  27 C27            3.2345     6.6557    -3.9541 C.3     
  28 C28            5.9565    -6.6474     0.6956 C.3     
  29 N29            7.2768    -7.2227     0.4275 N.am    
  30 C30            8.3284    -7.3888     1.4377 C.3     
  31 C31            9.6343    -7.6059     0.6415 C.3     
  32 C32            9.0997    -8.1841    -0.6893 C.3     
  33 C33            7.6788    -7.6716    -0.7741 C.2     
  34 O34            7.0018    -7.6644    -1.7803 O.2     
  35 C35           -1.0692     2.3046     0.7436 C.ar    
  36 C36           -2.3269     1.7788     0.4545 C.ar    
  37 C37           -3.4691     2.5199     0.7484 C.ar    
  38 C38           -3.3472     3.7841     1.3304 C.ar    
  39 C39           -2.0982     4.2992     1.6143 C.ar    
  40 C40           -0.9619     3.5676     1.3304 C.ar    
  41 C41           -4.8076     1.9701     0.4446 C.2     
  42 O42           -4.9122     0.8702    -0.0621 O.2     
  43 N43           -5.9118     2.6884     0.7296 N.am    
  44 H44            1.4441     2.9447     1.0436 H       
  45 H45            5.7715     1.5631    -0.3818 H       
  46 H46            5.6926    -0.8658    -0.0267 H       
  47 H47            1.5441    -0.5756     1.0334 H       
  48 H48            5.5011    -2.6607     0.2691 H       
  49 H49            4.3419    -4.7414     1.7869 H       
  50 H50            3.8935    -4.9752     0.0803 H       
  51 H51            6.2897    -4.9260    -0.5560 H       
  52 H52            6.7381    -4.6922     1.1506 H       
  53 H53            3.3339     3.1789    -2.1424 H       
  54 H54            1.9083     3.2925    -1.0820 H       
  55 H55            2.3613     5.4474    -2.2476 H       
  56 H56            2.5225     5.6089    -0.4819 H       
  57 H57            6.1842     5.5628    -0.5484 H       
  58 H58            4.7586     5.6764     0.5120 H       
  59 H59            5.7312     3.4080     0.6172 H       
  60 H60            5.5700     3.2465    -1.1485 H       
  61 H61            3.4989     9.3420    -4.0123 H       
  62 H62            4.5186    10.7993    -2.3110 H       
  63 H63            5.4514     9.8284    -0.2512 H       
  64 H64            5.3591     7.3967     0.1175 H       
  65 H65            2.1585     6.6005    -3.7887 H       
  66 H66            3.4292     7.0650    -4.9454 H       
  67 H67            3.6648     5.6568    -3.8825 H       
  68 H68            5.6721    -6.8556     1.7271 H       
  69 H69            5.2237    -7.0893     0.0204 H       
  70 H70            8.4060    -6.4919     2.0523 H       
  71 H71            8.1182    -8.2575     2.0617 H       
  72 H72           10.1520    -6.6611     0.4762 H       
  73 H73           10.2837    -8.3220     1.1450 H       
  74 H74            9.6908    -7.8185    -1.5289 H       
  75 H75            9.1071    -9.2738    -0.6621 H       
  76 H76           -2.4157     0.8011     0.0042 H       
  77 H77           -4.2320     4.3599     1.5584 H       
  78 H78           -2.0095     5.2771     2.0639 H       
  79 H79            0.0121     3.9745     1.5587 H       
  80 H80           -5.8284     3.5661     1.1340 H       
  81 H81           -6.7899     2.3277     0.5303 H       
@<TRIPOS>BOND
   1    1    2 2
   2    1    3 am
   3    1   35 1
   4    3    4 1
   5    3   44 1
   6    4    5 ar
   7    4    9 ar
   8    5    6 ar
   9    5   15 1
  10    6    7 ar
  11    6   45 1
  12    7    8 ar
  13    7   46 1
  14    8    9 ar
  15    8   10 1
  16    9   47 1
  17   10   11 2
  18   10   12 am
  19   12   13 1
  20   12   48 1
  21   13   14 1
  22   13   49 1
  23   13   50 1
  24   14   28 1
  25   14   51 1
  26   14   52 1
  27   15   16 1
  28   15   20 1
  29   16   17 1
  30   16   53 1
  31   16   54 1
  32   17   18 1
  33   17   55 1
  34   17   56 1
  35   18   19 1
  36   18   21 1
  37   19   20 1
  38   19   57 1
  39   19   58 1
  40   20   59 1
  41   20   60 1
  42   21   22 ar
  43   21   26 ar
  44   22   23 ar
  45   22   27 1
  46   23   24 ar
  47   23   61 1
  48   24   25 ar
  49   24   62 1
  50   25   26 ar
  51   25   63 1
  52   26   64 1
  53   27   65 1
  54   27   66 1
  55   27   67 1
  56   28   29 1
  57   28   68 1
  58   28   69 1
  59   29   30 1
  60   29   33 am
  61   30   31 1
  62   30   70 1
  63   30   71 1
  64   31   32 1
  65   31   72 1
  66   31   73 1
  67   32   33 1
  68   32   74 1
  69   32   75 1
  70   33   34 2
  71   35   36 ar
  72   35   40 ar
  73   36   37 ar
  74   36   76 1
  75   37   38 ar
  76   37   41 1
  77   38   39 ar
  78   38   77 1
  79   39   40 ar
  80   39   78 1
  81   40   79 1
  82   41   42 2
  83   41   43 am
  84   43   80 1
  85   43   81 1

#	End of record

