#	Name: ASD01812939
#	Creating user name:	WinNT
#	Creation time:	15. 06. 2019 19:29

#	Modifying user name:	WinNT
#	Modification time:	15. 06. 2019 19:29

#	Program:	/corina/corina34_cracker 3.40 0067  02.08.2006

@<TRIPOS>MOLECULE
ASD01812939
  48   52    0    0    0
SMALL
NO_CHARGES


@<TRIPOS>ATOM
   1 C1             0.1087     1.3149    -0.1271 C.ar    
   2 C2             0.2039    -0.0624    -0.1210 C.ar    
   3 C3             1.4377    -0.6777     0.0283 C.ar    
   4 C4             2.5739     0.0816     0.1712 C.ar    
   5 C5             2.4964     1.4775     0.1669 C.ar    
   6 C6             1.2471     2.0948     0.0158 C.ar    
   7 C7             4.0317    -0.2629     0.3488 C.3     
   8 N8             4.7462     1.0155     0.4412 N.am    
   9 C9             3.8557     2.0169     0.3357 C.2     
  10 C10            6.1916     1.1742     0.6196 C.3     
  11 C11            6.8607     1.2336    -0.7294 C.ar    
  12 O12            1.1516     3.4480     0.0092 O.3     
  13 O13            4.1335     3.2000     0.3742 O.2     
  14 C14            7.0377     2.4521    -1.3588 C.ar    
  15 C15            7.6505     2.5098    -2.5952 C.ar    
  16 C16            8.0891     1.3428    -3.2061 C.ar    
  17 C17            7.9100     0.1208    -2.5718 C.ar    
  18 C18            7.3015     0.0702    -1.3329 C.ar    
  19 N19            8.7110     1.3980    -4.4612 N.pl3   
  20 N20            8.9598     2.5570    -5.2078 N.2     
  21 C21            9.1824     0.3426    -5.1630 C.2     
  22 C22            9.7062     0.8165    -6.3172 C.2     
  23 C23            9.5591     2.2079    -6.3177 C.2     
  24 C24            1.3389     4.0940    -1.1691 C.ar    
  25 N25            1.6311     3.4007    -2.2538 N.ar    
  26 C26            1.8223     3.9939    -3.4273 C.ar    
  27 C27            1.7189     5.3782    -3.5473 C.ar    
  28 C28            1.4131     6.1330    -2.4253 C.ar    
  29 C29            1.2152     5.4791    -1.2211 C.ar    
  30 C30            2.1380     3.2034    -4.5789 C.1     
  31 N31            2.3885     2.5763    -5.4924 N.1     
  32 H32           -0.8551     1.7869    -0.2479 H       
  33 H33           -0.6865    -0.6634    -0.2326 H       
  34 H34            1.5056    -1.7556     0.0326 H       
  35 H35            4.1721    -0.8377     1.2642 H       
  36 H36            4.3898    -0.8311    -0.5097 H       
  37 H37            6.3913     2.0965     1.1651 H       
  38 H38            6.5834     0.3270     1.1825 H       
  39 H39            6.6960     3.3596    -0.8832 H       
  40 H40            7.7882     3.4617    -3.0864 H       
  41 H41            8.2497    -0.7887    -3.0448 H       
  42 H42            7.1661    -0.8796    -0.8368 H       
  43 H43            9.1473    -0.6926    -4.8571 H       
  44 H44           10.1637     0.2257    -7.0970 H       
  45 H45            9.8806     2.8781    -7.1012 H       
  46 H46            1.8752     5.8573    -4.5025 H       
  47 H47            1.3269     7.2076    -2.4901 H       
  48 H48            0.9716     6.0388    -0.3301 H       
@<TRIPOS>BOND
   1    1    2 ar
   2    1    6 ar
   3    1   32 1
   4    2    3 ar
   5    2   33 1
   6    3    4 ar
   7    3   34 1
   8    4    7 1
   9    4    5 ar
  10    5    6 ar
  11    5    9 1
  12    6   12 1
  13    7    8 1
  14    7   35 1
  15    7   36 1
  16    8    9 am
  17    8   10 1
  18    9   13 2
  19   10   11 1
  20   10   37 1
  21   10   38 1
  22   11   14 ar
  23   11   18 ar
  24   12   24 1
  25   14   15 ar
  26   14   39 1
  27   15   16 ar
  28   15   40 1
  29   16   17 ar
  30   16   19 1
  31   17   18 ar
  32   17   41 1
  33   18   42 1
  34   19   21 1
  35   19   20 1
  36   20   23 2
  37   21   22 2
  38   21   43 1
  39   22   23 1
  40   22   44 1
  41   23   45 1
  42   24   25 ar
  43   24   29 ar
  44   25   26 ar
  45   26   27 ar
  46   26   30 1
  47   27   28 ar
  48   27   46 1
  49   28   29 ar
  50   28   47 1
  51   29   48 1
  52   30   31 3

#	End of record

