#	Name: ASD07660002
#	Creating user name:	WinNT
#	Creation time:	15. 06. 2019 21:11

#	Modifying user name:	WinNT
#	Modification time:	15. 06. 2019 21:11

#	Program:	/corina/corina34_cracker 3.40 0067  02.08.2006

@<TRIPOS>MOLECULE
ASD07660002
  39   39    0    0    0
SMALL
NO_CHARGES


@<TRIPOS>ATOM
   1 C1            -0.0187     1.5258     0.0104 C.3     
   2 C2             0.0021    -0.0041     0.0020 C.3     
   3 C3             0.7421    -0.5109     1.2415 C.3     
   4 C4             2.1775     0.0187     1.2307 C.3     
   5 C5             2.1567     1.5485     1.2391 C.3     
   6 C6             1.4167     2.0553    -0.0004 C.3     
   7 O7             0.7614    -1.9398     1.2337 O.3     
   8 O8            -0.7098     1.9991    -1.1473 O.3     
   9 O9             2.8463    -0.4422     0.0550 O.3     
  10 O10            3.4973     2.0431     1.2290 O.3     
  11 O11           -1.3386    -0.4987     0.0122 O.3     
  12 O12            1.3973     3.4842     0.0074 O.3     
  13 P13           -1.9387    -1.4293    -1.1565 P.3     
  14 P14           -2.0352     2.9096    -1.0661 P.3     
  15 O15           -1.6710     4.3293    -0.3997 O.3     
  16 O16           -2.6155     3.1460    -2.5492 O.3     
  17 O17           -3.0547     2.2243    -0.2408 O.2     
  18 O18           -1.7691    -0.7528    -2.4619 O.2     
  19 O19           -1.1576    -2.8370    -1.1761 O.3     
  20 O20           -3.5045    -1.6881    -0.8857 O.3     
  21 P21            4.0975     2.9738     2.3976 P.3     
  22 O22            3.2318     4.1608     2.5766 O.2     
  23 O23            4.1541     2.1386     3.7729 O.3     
  24 O24            5.5827     3.4483     1.9964 O.3     
  25 H25           -0.5289     1.8773     0.9072 H       
  26 H26            0.5123    -0.3556    -0.8948 H       
  27 H27            0.2319    -0.1594     2.1383 H       
  28 H28            2.7046    -0.3424     2.1137 H       
  29 H29            1.6465     1.9000     2.1359 H       
  30 H30            1.9269     1.7038    -0.8972 H       
  31 H31            1.2157    -2.3311     1.9923 H       
  32 H32            2.8969    -1.4052    -0.0168 H       
  33 H33            2.2753     3.8895     0.0012 H       
  34 H34           -1.0072     4.8346    -0.8887 H       
  35 H35           -3.4160     3.6878    -2.5765 H       
  36 H36           -1.2257    -3.3361    -0.3506 H       
  37 H37           -3.9326    -2.2428    -1.5522 H       
  38 H38            4.7050     1.3451     3.7288 H       
  39 H39            6.0067     4.0137     2.6564 H       
@<TRIPOS>BOND
   1    1    2 1
   2    1    6 1
   3    1    8 1
   4    1   25 1
   5    2    3 1
   6    2   11 1
   7    2   26 1
   8    3    4 1
   9    3    7 1
  10    3   27 1
  11    4    5 1
  12    4    9 1
  13    4   28 1
  14    5    6 1
  15    5   10 1
  16    5   29 1
  17    6   12 1
  18    6   30 1
  19    7   31 1
  20    8   14 1
  21    9   32 1
  22   10   21 1
  23   11   13 1
  24   12   33 1
  25   13   18 2
  26   13   19 1
  27   13   20 1
  28   14   15 1
  29   14   16 1
  30   14   17 2
  31   15   34 1
  32   16   35 1
  33   19   36 1
  34   20   37 1
  35   21   22 2
  36   21   23 1
  37   21   24 1
  38   23   38 1
  39   24   39 1

#	End of record

