#	Name: ASD01140194
#	Creating user name:	WinNT
#	Creation time:	15. 06. 2019 19:00

#	Modifying user name:	WinNT
#	Modification time:	15. 06. 2019 19:00

#	Program:	/corina/corina34_cracker 3.40 0067  02.08.2006

@<TRIPOS>MOLECULE
ASD01140194
  45   48    0    0    0
SMALL
NO_CHARGES


@<TRIPOS>ATOM
   1 C1             1.6500    -0.9082    -0.9245 C.1     
   2 C2             1.4829     0.2505    -0.8369 C.1     
   3 C3             1.2792     1.6639    -0.7299 C.ar    
   4 C4             2.3691     2.5350    -0.8038 C.ar    
   5 C5             2.1670     3.8936    -0.7121 C.ar    
   6 C6             0.8851     4.4108    -0.5458 C.ar    
   7 C7            -0.2121     3.5512    -0.4474 C.ar    
   8 C8            -0.0031     2.1704    -0.5584 C.ar    
   9 C9            -1.5818     4.0192    -0.2068 C.2     
  10 N10           -2.1726     5.0347    -0.7316 N.2     
  11 C11           -1.5056     5.8914    -1.7187 C.3     
  12 C12           -0.2948     6.4960    -1.0564 C.2     
  13 N13            0.7374     5.8003    -0.5156 N.pl3   
  14 C14            1.5986     6.7014     0.0298 C.2     
  15 N15            1.1493     7.9033    -0.1974 N.2     
  16 C16           -0.8518     8.9469    -1.3386 C.2     
  17 O17           -1.8298     8.7420    -2.0320 O.2     
  18 N18           -0.5241    10.2072    -0.9911 N.am    
  19 C19           -1.2753    11.3378    -1.5423 C.3     
  20 C20            0.5832    10.4466    -0.0624 C.3     
  21 C21           -2.3811     3.2265     0.7563 C.ar    
  22 C22           -1.7435     2.4594     1.7311 C.ar    
  23 C23           -2.4934     1.7233     2.6253 C.ar    
  24 C24           -3.8750     1.7449     2.5562 C.ar    
  25 C25           -4.5132     2.5039     1.5915 C.ar    
  26 C26           -3.7743     3.2488     0.6954 C.ar    
  27 C27           -0.0254     7.8175    -0.8784 C.2     
  28 H28            1.7994    -1.9445    -1.0029 H       
  29 H29            3.3675     2.1436    -0.9322 H       
  30 H30            3.0111     4.5648    -0.7693 H       
  31 H31           -0.8440     1.4947    -0.5058 H       
  32 H32           -1.1977     5.2949    -2.5776 H       
  33 H33           -2.1839     6.6815    -2.0406 H       
  34 H34            2.5056     6.4601     0.5641 H       
  35 H35           -2.1152    11.5698    -0.8873 H       
  36 H36           -0.6216    12.2068    -1.6166 H       
  37 H37           -1.6482    11.0778    -2.5330 H       
  38 H38            1.5235    10.4588    -0.6135 H       
  39 H39            0.4403    11.4066     0.4337 H       
  40 H40            0.6098     9.6525     0.6838 H       
  41 H41           -0.6650     2.4415     1.7858 H       
  42 H42           -2.0008     1.1286     3.3804 H       
  43 H43           -4.4577     1.1668     3.2581 H       
  44 H44           -5.5920     2.5168     1.5425 H       
  45 H45           -4.2737     3.8447    -0.0542 H       
@<TRIPOS>BOND
   1    1    2 3
   2    1   28 1
   3    2    3 1
   4    3    4 ar
   5    3    8 ar
   6    4    5 ar
   7    4   29 1
   8    5    6 ar
   9    5   30 1
  10    6    7 ar
  11    6   13 1
  12    7    8 ar
  13    7    9 1
  14    8   31 1
  15    9   10 2
  16    9   21 1
  17   10   11 1
  18   11   12 1
  19   11   32 1
  20   11   33 1
  21   12   13 1
  22   12   27 2
  23   13   14 1
  24   14   15 2
  25   14   34 1
  26   15   27 1
  27   16   17 2
  28   16   18 am
  29   16   27 1
  30   18   19 1
  31   18   20 1
  32   19   35 1
  33   19   36 1
  34   19   37 1
  35   20   38 1
  36   20   39 1
  37   20   40 1
  38   21   22 ar
  39   21   26 ar
  40   22   23 ar
  41   22   41 1
  42   23   24 ar
  43   23   42 1
  44   24   25 ar
  45   24   43 1
  46   25   26 ar
  47   25   44 1
  48   26   45 1

#	End of record

