#	Name: ASD00510018
#	Creating user name:	WinNT
#	Creation time:	15. 06. 2019 18:36

#	Modifying user name:	WinNT
#	Modification time:	15. 06. 2019 18:36

#	Program:	/corina/corina34_cracker 3.40 0067  02.08.2006

@<TRIPOS>MOLECULE
ASD00510018
  45   48    0    0    0
SMALL
NO_CHARGES


@<TRIPOS>ATOM
   1 C1            -0.0955     0.8807    -0.1588 C.ar    
   2 C2             0.2865    -0.4468     0.0642 C.ar    
   3 C3             1.5895    -0.7354     0.3451 C.ar    
   4 C4             2.5461     0.2740     0.4137 C.ar    
   5 C5             2.2078     1.5763     0.2024 C.ar    
   6 C6             0.8746     1.9096    -0.0904 C.ar    
   7 C7             0.4886     3.2434    -0.3159 C.ar    
   8 C8            -0.8034     3.5565    -0.5985 C.ar    
   9 C9            -1.7955     2.5802    -0.6770 C.ar    
  10 C10           -1.4809     1.2343    -0.4689 C.ar    
  11 N11           -2.4405     0.2766    -0.5492 N.2     
  12 N12           -3.6745     0.6125    -0.7180 N.2     
  13 O13           -3.0728     2.9380    -0.9618 O.3     
  14 C14           -4.6370    -0.3476    -0.7952 C.ar    
  15 C15           -6.9885    -1.0251    -1.1888 C.ar    
  16 C16           -6.6029    -2.3547    -0.9469 C.ar    
  17 C17           -5.3114    -2.6594    -0.6426 C.ar    
  18 C18           -4.3279    -1.6835    -0.5625 C.ar    
  19 C19           -6.0191     0.0047    -1.1186 C.ar    
  20 C20           -6.3992     1.3302    -1.3579 C.ar    
  21 C21           -7.6988     1.6152    -1.6560 C.ar    
  22 C22           -8.6549     0.6050    -1.7254 C.ar    
  23 C23           -8.3192    -0.6950    -1.4982 C.ar    
  24 S24            4.2192    -0.1396     0.7799 S.o2    
  25 O25            4.8138     1.0332     1.3185 O.2     
  26 O26            4.1838    -1.3807     1.4710 O.2     
  27 O27            4.9180    -0.4058    -0.5458 O.3     
  28 S28           -0.9094    -1.7383    -0.0170 S.o2    
  29 O29           -1.5788    -1.7447     1.2364 O.2     
  30 O30           -1.5844    -1.5828    -1.2578 O.2     
  31 O31           -0.1475    -3.0530    -0.1041 O.3     
  32 H32            1.8831    -1.7604     0.5169 H       
  33 H33            2.9604     2.3488     0.2595 H       
  34 H34            1.2283     4.0287    -0.2636 H       
  35 H35           -1.0688     4.5898    -0.7665 H       
  36 H36           -3.2783     2.9436    -1.9067 H       
  37 H37           -7.3397    -3.1426    -0.9992 H       
  38 H38           -5.0440    -3.6900    -0.4617 H       
  39 H39           -3.3140    -1.9639    -0.3178 H       
  40 H40           -5.6674     2.1227    -1.3064 H       
  41 H41           -7.9908     2.6385    -1.8404 H       
  42 H42           -9.6781     0.8564    -1.9627 H       
  43 H43           -9.0711    -1.4681    -1.5562 H       
  44 H44            5.8512    -0.6437    -0.4577 H       
  45 H45           -0.7153    -3.8341    -0.1535 H       
@<TRIPOS>BOND
   1    1    2 ar
   2    1    6 ar
   3    1   10 ar
   4    2    3 ar
   5    2   28 1
   6    3    4 ar
   7    3   32 1
   8    4    5 ar
   9    4   24 1
  10    5    6 ar
  11    5   33 1
  12    6    7 ar
  13    7    8 ar
  14    7   34 1
  15    8    9 ar
  16    8   35 1
  17    9   10 ar
  18    9   13 1
  19   10   11 1
  20   11   12 2
  21   12   14 1
  22   13   36 1
  23   14   19 ar
  24   14   18 ar
  25   15   16 ar
  26   15   19 ar
  27   15   23 ar
  28   16   17 ar
  29   16   37 1
  30   17   18 ar
  31   17   38 1
  32   18   39 1
  33   19   20 ar
  34   20   21 ar
  35   20   40 1
  36   21   22 ar
  37   21   41 1
  38   22   23 ar
  39   22   42 1
  40   23   43 1
  41   24   25 2
  42   24   26 2
  43   24   27 1
  44   27   44 1
  45   28   29 2
  46   28   30 2
  47   28   31 1
  48   31   45 1

#	End of record

