#	Name: ASD00431022
#	Creating user name:	WinNT
#	Creation time:	15. 06. 2019 18:35

#	Modifying user name:	WinNT
#	Modification time:	15. 06. 2019 18:35

#	Program:	/corina/corina34_cracker 3.40 0067  02.08.2006

@<TRIPOS>MOLECULE
ASD00431022
   9    8    0    0    0
SMALL
NO_CHARGES


@<TRIPOS>ATOM
   1 C1            -0.0178     1.4648     0.0101 C.3     
   2 N2             0.0021    -0.0041     0.0020 N.3     
   3 C3             1.3631     1.9743    -0.0004 C.1     
   4 C4             2.4645     2.3806    -0.0087 C.1     
   5 H5            -0.5450     1.8259    -0.8730 H       
   6 H6            -0.5280     1.8163     0.9069 H       
   7 H7             0.5405    -0.3627     0.7764 H       
   8 H8            -0.9349    -0.3784     0.0090 H       
   9 H9             3.4496     2.7441    -0.0161 H       
@<TRIPOS>BOND
   1    1    2 1
   2    1    3 1
   3    1    5 1
   4    1    6 1
   5    2    7 1
   6    2    8 1
   7    3    4 3
   8    4    9 1

#	End of record

