#	Name: ASD01940167
#	Creating user name:	WinNT
#	Creation time:	15. 06. 2019 20:11

#	Modifying user name:	WinNT
#	Modification time:	15. 06. 2019 20:11

#	Program:	/corina/corina34_cracker 3.40 0067  02.08.2006

@<TRIPOS>MOLECULE
ASD01940167
  42   43    0    0    0
SMALL
NO_CHARGES


@<TRIPOS>ATOM
   1 Br1            2.0209    -4.0502    -1.9536 Br      
   2 F2             2.0372     2.2252     1.9684 F       
   3 C3             1.1365     2.7347     1.0999 C.ar    
   4 C4             1.3174     2.5677    -0.2666 C.ar    
   5 C5             0.3854     3.0953    -1.1588 C.ar    
   6 C6            -0.7180     3.7842    -0.6780 C.ar    
   7 C7            -0.8931     3.9474     0.6839 C.ar    
   8 C8             0.0282     3.4194     1.5723 C.ar    
   9 N9             2.4346     1.8710    -0.7477 N.pl3   
  10 N10            0.5632     2.9302    -2.5389 N.am    
  11 C11            2.3395     0.5046    -1.0259 C.ar    
  12 C12            1.1798    -0.1909    -0.7097 C.ar    
  13 C13            1.0885    -1.5413    -0.9863 C.ar    
  14 C14            2.1506    -2.2015    -1.5774 C.ar    
  15 C15            3.3082    -1.5121    -1.8938 C.ar    
  16 C16            3.4036    -0.1602    -1.6254 C.ar    
  17 Cl17           4.8558     0.7044    -2.0223 Cl      
  18 F18           -0.1507     3.5769     2.9021 F       
  19 S19            0.1532     4.1522    -3.5786 S.o2    
  20 O20            0.5689     3.6819    -4.8535 O.2     
  21 O21           -1.2178     4.4028    -3.3015 O.2     
  22 C22            1.3894     6.7796    -5.1031 C.3     
  23 C23            0.4156     7.4654    -6.0634 C.3     
  24 C24            2.6934     7.5776    -5.0431 C.3     
  25 C25            1.1756     5.5555    -3.0534 C.3     
  26 O26            0.8083     6.7179    -3.7990 O.3     
  27 H27           -1.4410     4.1939    -1.3678 H       
  28 H28           -1.7532     4.4843     1.0558 H       
  29 H29            3.2737     2.3372    -0.8874 H       
  30 H30            0.9265     2.1001    -2.8853 H       
  31 H31            0.3502     0.3235    -0.2475 H       
  32 H32            0.1867    -2.0823    -0.7404 H       
  33 H33            4.1360    -2.0303    -2.3549 H       
  34 H34            1.5974     5.7696    -5.4563 H       
  35 H35            0.2076     8.4753    -5.7102 H       
  36 H36            0.8588     7.5124    -7.0581 H       
  37 H37           -0.5135     6.8969    -6.1062 H       
  38 H38            3.0921     7.6985    -6.0503 H       
  39 H39            2.4996     8.5584    -4.6089 H       
  40 H40            3.4177     7.0444    -4.4273 H       
  41 H41            1.0195     5.7412    -1.9907 H       
  42 H42            2.2262     5.3264    -3.2318 H       
@<TRIPOS>BOND
   1    1   14 1
   2    2    3 1
   3    3    4 ar
   4    3    8 ar
   5    4    5 ar
   6    4    9 1
   7    5    6 ar
   8    5   10 1
   9    6    7 ar
  10    6   27 1
  11    7    8 ar
  12    7   28 1
  13    8   18 1
  14    9   11 1
  15    9   29 1
  16   10   19 am
  17   10   30 1
  18   11   12 ar
  19   11   16 ar
  20   12   13 ar
  21   12   31 1
  22   13   14 ar
  23   13   32 1
  24   14   15 ar
  25   15   16 ar
  26   15   33 1
  27   16   17 1
  28   19   20 2
  29   19   21 2
  30   19   25 1
  31   22   23 1
  32   22   26 1
  33   22   24 1
  34   22   34 1
  35   23   35 1
  36   23   36 1
  37   23   37 1
  38   24   38 1
  39   24   39 1
  40   24   40 1
  41   25   26 1
  42   25   41 1
  43   25   42 1

#	End of record

