#	Name: ASD01180238
#	Creating user name:	WinNT
#	Creation time:	15. 06. 2019 19:07

#	Modifying user name:	WinNT
#	Modification time:	15. 06. 2019 19:07

#	Program:	/corina/corina34_cracker 3.40 0067  02.08.2006

@<TRIPOS>MOLECULE
ASD01180238
  69   71    0    0    0
SMALL
NO_CHARGES


@<TRIPOS>ATOM
   1 C1            -2.6128    -1.6026    -5.7477 C.2     
   2 N2            -0.4613    -4.1627    -4.0093 N.am    
   3 C3            -1.0302    -3.4087    -5.1291 C.3     
   4 C4            -2.0276    -2.3783    -4.5958 C.3     
   5 O5            -2.2675    -1.8486    -6.8792 O.2     
   6 O6            -3.5216    -0.6421    -5.5172 O.3     
   7 C7             0.4472    -5.1309    -4.2412 C.2     
   8 O8             0.7946    -5.3785    -5.3798 O.2     
   9 C9             0.6284    -5.6143    -1.8023 C.ar    
  10 C10            1.0201    -5.8903    -3.1135 C.ar    
  11 C11            1.9662    -6.9006    -3.3434 C.ar    
  12 C12            2.4709    -7.5799    -2.2674 C.ar    
  13 C13            2.0344    -7.2514    -0.9855 C.ar    
  14 N14            1.1388    -6.2918    -0.7955 N.ar    
  15 N15            2.5424    -7.9367     0.1052 N.pl3   
  16 C16            3.6163    -8.9157    -0.0803 C.3     
  17 C17            4.3834    -9.0861     1.2326 C.3     
  18 C18            5.0459    -7.7602     1.6119 C.3     
  19 C19            5.6957    -7.8910     2.9909 C.3     
  20 C20            3.0242   -10.2391    -0.4915 C.ar    
  21 C21            3.6537   -11.0059    -1.4553 C.ar    
  22 C22            3.1158   -12.2187    -1.8358 C.ar    
  23 C23            1.9363   -12.6702    -1.2469 C.ar    
  24 C24            1.3063   -11.8935    -0.2763 C.ar    
  25 C25            1.8562   -10.6850     0.1004 C.ar    
  26 C26            1.3531   -13.9727    -1.6520 C.ar    
  27 C27            0.1734   -14.4163    -1.0579 C.ar    
  28 C28           -0.3587   -15.6335    -1.4461 C.ar    
  29 C29            0.3073   -16.3681    -2.4171 C.ar    
  30 C30            1.4739   -15.8676    -2.9647 C.ar    
  31 N31            1.9561   -14.7030    -2.5809 N.ar    
  32 C32           -0.2357   -17.6990    -2.8699 C.3     
  33 F33           -1.1047   -17.5054    -3.9490 F       
  34 F34            0.8225   -18.5241    -3.2656 F       
  35 F35           -0.9288   -18.3030    -1.8154 F       
  36 C36            6.1152    -7.4094     0.5754 C.3     
  37 C37           -4.0424     0.0641    -6.6742 C.3     
  38 C38           -5.0579     1.1131    -6.2169 C.3     
  39 H39           -0.7384    -3.9652    -3.1010 H       
  40 H40           -0.2312    -2.8970    -5.6658 H       
  41 H41           -1.5418    -4.0933    -5.8056 H       
  42 H42           -1.5159    -1.6936    -3.9194 H       
  43 H43           -2.8265    -2.8899    -4.0591 H       
  44 H44           -0.0957    -4.8360    -1.6121 H       
  45 H45            2.2887    -7.1373    -4.3467 H       
  46 H46            3.2004    -8.3634    -2.4107 H       
  47 H47            2.1872    -7.7685     0.9920 H       
  48 H48            4.2972    -8.5656    -0.8561 H       
  49 H49            3.6926    -9.3857     2.0207 H       
  50 H50            5.1486    -9.8525     1.1094 H       
  51 H51            4.2931    -6.9723     1.6383 H       
  52 H52            6.4485    -8.6788     2.9646 H       
  53 H53            6.1677    -6.9463     3.2612 H       
  54 H54            4.9339    -8.1408     3.7293 H       
  55 H55            4.5676   -10.6548    -1.9113 H       
  56 H56            3.6080   -12.8164    -2.5887 H       
  57 H57            0.3920   -12.2387     0.1833 H       
  58 H58            1.3714   -10.0844     0.8559 H       
  59 H59           -0.3187   -13.8188    -0.3047 H       
  60 H60           -1.2715   -16.0035    -1.0032 H       
  61 H61            1.9946   -16.4368    -3.7205 H       
  62 H62            6.6172    -6.4875     0.8690 H       
  63 H63            6.8443    -8.2177     0.5178 H       
  64 H64            5.6460    -7.2732    -0.3989 H       
  65 H65           -3.2231     0.5558    -7.1987 H       
  66 H66           -4.5290    -0.6450    -7.3439 H       
  67 H67           -5.8771     0.6213    -5.6923 H       
  68 H68           -4.5713     1.8221    -5.5471 H       
  69 H69           -5.4488     1.6432    -7.0854 H       
@<TRIPOS>BOND
   1    1    4 1
   2    1    5 2
   3    1    6 1
   4    2    3 1
   5    2    7 am
   6    2   39 1
   7    3    4 1
   8    3   40 1
   9    3   41 1
  10    4   42 1
  11    4   43 1
  12    6   37 1
  13    7    8 2
  14    7   10 1
  15    9   10 ar
  16    9   14 ar
  17    9   44 1
  18   10   11 ar
  19   11   12 ar
  20   11   45 1
  21   12   13 ar
  22   12   46 1
  23   13   14 ar
  24   13   15 1
  25   15   16 1
  26   15   47 1
  27   16   17 1
  28   16   20 1
  29   16   48 1
  30   17   18 1
  31   17   49 1
  32   17   50 1
  33   18   19 1
  34   18   36 1
  35   18   51 1
  36   19   52 1
  37   19   53 1
  38   19   54 1
  39   20   21 ar
  40   20   25 ar
  41   21   22 ar
  42   21   55 1
  43   22   23 ar
  44   22   56 1
  45   23   24 ar
  46   23   26 1
  47   24   25 ar
  48   24   57 1
  49   25   58 1
  50   26   27 ar
  51   26   31 ar
  52   27   28 ar
  53   27   59 1
  54   28   29 ar
  55   28   60 1
  56   29   30 ar
  57   29   32 1
  58   30   31 ar
  59   30   61 1
  60   32   33 1
  61   32   34 1
  62   32   35 1
  63   36   62 1
  64   36   63 1
  65   36   64 1
  66   37   38 1
  67   37   65 1
  68   37   66 1
  69   38   67 1
  70   38   68 1
  71   38   69 1

#	End of record

