#	Name: ASD01001263
#	Creating user name:	WinNT
#	Creation time:	15. 06. 2019 18:55

#	Modifying user name:	WinNT
#	Modification time:	15. 06. 2019 18:55

#	Program:	/corina/corina34_cracker 3.40 0067  02.08.2006

@<TRIPOS>MOLECULE
ASD01001263
  45   48    0    0    0
SMALL
NO_CHARGES


@<TRIPOS>ATOM
   1 C1            -0.4357     1.9525    -0.1976 C.ar    
   2 C2            -0.1930     0.5817    -0.2427 C.ar    
   3 C3            -1.2544    -0.3015    -0.1699 C.ar    
   4 C4            -2.5560     0.1670    -0.0525 C.ar    
   5 C5            -2.7971     1.5220     0.0032 C.ar    
   6 C6            -1.7331     2.4129    -0.0721 C.ar    
   7 O7             0.7575     2.6094    -0.2893 O.3     
   8 C8             1.7624     1.6266     0.0229 C.3     
   9 O9             1.1519     0.3800    -0.3596 O.3     
  10 C10           -3.6669    -0.8523    -0.0047 C.3     
  11 N11           -4.9198    -0.1998     0.3896 N.am    
  12 C12           -5.2439     1.0853    -0.2517 C.3     
  13 C13           -4.1791     2.0994     0.1628 C.3     
  14 C14           -3.8335    -1.4766    -1.3662 C.ar    
  15 C15           -3.7776    -2.8506    -1.5075 C.ar    
  16 C16           -3.9297    -3.4265    -2.7555 C.ar    
  17 C17           -4.1378    -2.6296    -3.8643 C.ar    
  18 C18           -4.1948    -1.2503    -3.7251 C.ar    
  19 C19           -4.0476    -0.6754    -2.4713 C.ar    
  20 O20           -4.3990    -0.4641    -4.8147 O.3     
  21 C21           -5.7419    -0.7546     1.3022 C.2     
  22 C22           -7.0222    -0.0579     1.6852 C.3     
  23 C23           -7.7639    -0.8928     2.7310 C.3     
  24 N24           -9.0119    -0.2138     3.1044 N.3     
  25 O25           -5.4514    -1.8145     1.8151 O.2     
  26 H26           -1.0693    -1.3649    -0.2049 H       
  27 H27           -1.9223     3.4756    -0.0375 H       
  28 H28            2.6665     1.8049    -0.5594 H       
  29 H29            1.9855     1.6324     1.0898 H       
  30 H30           -3.4175    -1.6268     0.7206 H       
  31 H31           -5.2394     0.9680    -1.3353 H       
  32 H32           -6.2253     1.4252     0.0790 H       
  33 H33           -4.3338     2.3755     1.2058 H       
  34 H34           -4.2699     2.9892    -0.4601 H       
  35 H35           -3.6146    -3.4754    -0.6417 H       
  36 H36           -3.8853    -4.5002    -2.8634 H       
  37 H37           -4.2558    -3.0798    -4.8389 H       
  38 H38           -4.0915     0.3980    -2.3604 H       
  39 H39           -5.3308    -0.2855    -5.0017 H       
  40 H40           -6.7918     0.9232     2.1003 H       
  41 H41           -7.6501     0.0596     0.8020 H       
  42 H42           -7.9943    -1.8740     2.3158 H       
  43 H43           -7.1359    -1.0103     3.6141 H       
  44 H44           -9.5834    -0.0352     2.2922 H       
  45 H45           -9.5205    -0.7458     3.7945 H       
@<TRIPOS>BOND
   1    1    2 ar
   2    1    7 1
   3    1    6 ar
   4    2    3 ar
   5    2    9 1
   6    3    4 ar
   7    3   26 1
   8    4    5 ar
   9    4   10 1
  10    5    6 ar
  11    5   13 1
  12    6   27 1
  13    7    8 1
  14    8    9 1
  15    8   28 1
  16    8   29 1
  17   10   11 1
  18   10   14 1
  19   10   30 1
  20   11   12 1
  21   11   21 am
  22   12   13 1
  23   12   31 1
  24   12   32 1
  25   13   33 1
  26   13   34 1
  27   14   15 ar
  28   14   19 ar
  29   15   16 ar
  30   15   35 1
  31   16   17 ar
  32   16   36 1
  33   17   18 ar
  34   17   37 1
  35   18   19 ar
  36   18   20 1
  37   19   38 1
  38   20   39 1
  39   21   22 1
  40   21   25 2
  41   22   23 1
  42   22   40 1
  43   22   41 1
  44   23   24 1
  45   23   42 1
  46   23   43 1
  47   24   44 1
  48   24   45 1

#	End of record

