#	Name: ASD00960294
#	Creating user name:	WinNT
#	Creation time:	15. 06. 2019 18:53

#	Modifying user name:	WinNT
#	Modification time:	15. 06. 2019 18:53

#	Program:	/corina/corina34_cracker 3.40 0067  02.08.2006

@<TRIPOS>MOLECULE
ASD00960294
  40   42    0    0    0
SMALL
NO_CHARGES


@<TRIPOS>ATOM
   1 C1            -0.0171     1.4079     0.0098 C.2     
   2 N2             2.0998     0.7213    -0.0198 N.pl3   
   3 C3             1.3153    -0.3882    -0.0092 C.2     
   4 C4             0.0021    -0.0041     0.0020 C.2     
   5 N5             3.4998     0.6280    -0.0556 N.2     
   6 C6             4.0365    -0.5300    -0.3000 C.2     
   7 N7             3.2736    -1.6454    -0.5670 N.pl3   
   8 C8             1.9192    -1.7739     0.0008 C.3     
   9 N9             1.9966    -2.2802     1.3776 N.3     
  10 C10           -1.1380    -0.8706     0.0057 C.1     
  11 C11           -2.0727    -1.5810     0.0086 C.1     
  12 C12            1.2999     1.8303    -0.0005 C.2     
  13 C13           -3.2446    -2.4717     0.0124 C.3     
  14 O14           -4.4390    -1.6873     0.0248 O.3     
  15 C15            1.7574     3.2210     0.0077 C.2     
  16 O16            0.9469     4.1278     0.0256 O.2     
  17 O17            3.0779     3.4967    -0.0045 O.3     
  18 C18            3.4588     4.8979     0.0047 C.3     
  19 C19            4.9615     5.0100    -0.0112 C.ar    
  20 C20            5.6373     5.0729    -1.2155 C.ar    
  21 C21            7.0157     5.1757    -1.2300 C.ar    
  22 C22            7.7184     5.2160    -0.0403 C.ar    
  23 C23            7.0426     5.1540     1.1640 C.ar    
  24 C24            5.6639     5.0555     1.1786 C.ar    
  25 H25           -0.8939     2.0384     0.0176 H       
  26 H26            5.1127    -0.6205    -0.2939 H       
  27 H27            3.6295    -2.3497    -1.1311 H       
  28 H28            1.3195    -2.4465    -0.6125 H       
  29 H29            2.4410    -3.1856     1.4055 H       
  30 H30            2.4740    -1.6244     1.9777 H       
  31 H31           -3.2292    -3.0961    -0.8809 H       
  32 H32           -3.2167    -3.1051     0.8990 H       
  33 H33           -5.2527    -2.2098     0.0278 H       
  34 H34            3.0483     5.3918    -0.8760 H       
  35 H35            3.0684     5.3746     0.9038 H       
  36 H36            5.0883     5.0415    -2.1450 H       
  37 H37            7.5437     5.2242    -2.1709 H       
  38 H38            8.7954     5.2956    -0.0517 H       
  39 H39            7.5917     5.1851     2.0935 H       
  40 H40            5.1356     5.0108     2.1196 H       
@<TRIPOS>BOND
   1    1    4 1
   2    1   12 2
   3    1   25 1
   4    2    3 1
   5    2    5 1
   6    2   12 1
   7    3    4 2
   8    3    8 1
   9    4   10 1
  10    5    6 2
  11    6    7 1
  12    6   26 1
  13    7    8 1
  14    7   27 1
  15    8    9 1
  16    8   28 1
  17    9   29 1
  18    9   30 1
  19   10   11 3
  20   11   13 1
  21   12   15 1
  22   13   14 1
  23   13   31 1
  24   13   32 1
  25   14   33 1
  26   15   16 2
  27   15   17 1
  28   17   18 1
  29   18   19 1
  30   18   34 1
  31   18   35 1
  32   19   20 ar
  33   19   24 ar
  34   20   21 ar
  35   20   36 1
  36   21   22 ar
  37   21   37 1
  38   22   23 ar
  39   22   38 1
  40   23   24 ar
  41   23   39 1
  42   24   40 1

#	End of record

