#	Name: ASD01813529
#	Creating user name:	WinNT
#	Creation time:	15. 06. 2019 19:30

#	Modifying user name:	WinNT
#	Modification time:	15. 06. 2019 19:30

#	Program:	/corina/corina34_cracker 3.40 0067  02.08.2006

@<TRIPOS>MOLECULE
ASD01813529
  42   45    0    0    0
SMALL
NO_CHARGES


@<TRIPOS>ATOM
   1 C1            -0.0168     1.3825    -0.0466 C.ar    
   2 C2             0.0020    -0.0038    -0.0536 C.ar    
   3 C3             1.1975    -0.6932    -0.0496 C.ar    
   4 C4             2.4040     0.0044    -0.0390 C.ar    
   5 C5             2.3834     1.4096    -0.0323 C.ar    
   6 C6             1.1657     2.0946    -0.0360 C.ar    
   7 N7             3.6050    -0.6734    -0.0339 N.pl3   
   8 C8             4.7898    -0.0496    -0.0227 C.2     
   9 C9             4.8962     1.3266    -0.0150 C.2     
  10 C10            3.6660     2.1351    -0.0211 C.2     
  11 O11            3.7066     3.3531    -0.0152 O.2     
  12 C12            6.2155     1.9737    -0.0018 C.2     
  13 O13            6.3065     3.3187     0.0057 O.3     
  14 O14            7.2249     1.2962     0.0024 O.2     
  15 C15            3.5837    -2.1382    -0.0406 C.3     
  16 C16            3.4403    -2.6321    -1.4571 C.ar    
  17 N17            2.2383    -2.7342    -1.9904 N.ar    
  18 C18            2.0590    -3.1599    -3.2242 C.ar    
  19 C19            3.1476    -3.5205    -4.0152 C.ar    
  20 C20            4.4348    -3.4234    -3.4786 C.ar    
  21 C21            4.5716    -2.9657    -2.1796 C.ar    
  22 C22            2.9442    -4.0001    -5.4042 C.ar    
  23 F23            1.1984    -2.0441    -0.0557 F       
  24 F24            1.1457     3.4455    -0.0300 F       
  25 C25            2.0203    -5.0123    -5.6872 C.ar    
  26 C26            1.8627    -5.4283    -6.9963 C.ar    
  27 N27            2.5689    -4.8841    -7.9683 N.ar    
  28 C28            3.4494    -3.9279    -7.7427 C.ar    
  29 C29            3.6658    -3.4496    -6.4669 C.ar    
  30 F30            1.2938    -5.5746    -4.6966 F       
  31 H31           -0.9606     1.9075    -0.0539 H       
  32 H32           -0.9294    -0.5504    -0.0619 H       
  33 H33            5.6921    -0.6430    -0.0194 H       
  34 H34            7.1957     3.6986     0.0143 H       
  35 H35            4.5134    -2.5171     0.3839 H       
  36 H36            2.7418    -2.4920     0.5545 H       
  37 H37            1.0589    -3.2303    -3.6260 H       
  38 H38            5.3007    -3.6947    -4.0642 H       
  39 H39            5.5506    -2.8777    -1.7321 H       
  40 H40            1.1527    -6.2090    -7.2258 H       
  41 H41            4.0060    -3.5111    -8.5690 H       
  42 H42            4.3883    -2.6663    -6.2908 H       
@<TRIPOS>BOND
   1    1    2 ar
   2    1    6 ar
   3    1   31 1
   4    2    3 ar
   5    2   32 1
   6    3    4 ar
   7    3   23 1
   8    4    5 ar
   9    4    7 1
  10    5    6 ar
  11    5   10 1
  12    6   24 1
  13    7    8 1
  14    7   15 1
  15    8    9 2
  16    8   33 1
  17    9   10 1
  18    9   12 1
  19   10   11 2
  20   12   13 1
  21   12   14 2
  22   13   34 1
  23   15   16 1
  24   15   35 1
  25   15   36 1
  26   16   17 ar
  27   16   21 ar
  28   17   18 ar
  29   18   19 ar
  30   18   37 1
  31   19   20 ar
  32   19   22 1
  33   20   21 ar
  34   20   38 1
  35   21   39 1
  36   22   25 ar
  37   22   29 ar
  38   25   26 ar
  39   25   30 1
  40   26   27 ar
  41   26   40 1
  42   27   28 ar
  43   28   29 ar
  44   28   41 1
  45   29   42 1

#	End of record

