#	Name: ASD00431122
#	Creating user name:	WinNT
#	Creation time:	15. 06. 2019 18:35

#	Modifying user name:	WinNT
#	Modification time:	15. 06. 2019 18:35

#	Program:	/corina/corina34_cracker 3.40 0067  02.08.2006

@<TRIPOS>MOLECULE
ASD00431122
  55   58    0    0    0
SMALL
NO_CHARGES


@<TRIPOS>ATOM
   1 C1            -1.1527     2.2806     0.4315 C.3     
   2 C2            -0.9927     0.7858     0.7156 C.3     
   3 C3             0.1760     1.7412     0.9649 C.3     
   4 C4            -1.1990     2.7136    -1.0113 C.2     
   5 O5            -1.1105     1.8880    -1.8953 O.2     
   6 N6            -1.3386     4.0183    -1.3191 N.am    
   7 C7            -1.3836     4.4392    -2.7216 C.3     
   8 C8            -2.8153     4.3131    -3.2463 C.3     
   9 O9            -1.2331     6.8720    -1.9871 O.3     
  10 N10           -0.7293     7.9169    -2.3282 N.2     
  11 C11           -0.0305     7.7731    -3.4304 C.2     
  12 C12           -0.1487     6.4006    -3.7958 C.2     
  13 C13           -0.9332     5.8732    -2.8304 C.2     
  14 S14            1.6541     8.6008    -5.6269 S.3     
  15 C15            2.0832    10.2555    -5.6169 C.2     
  16 N16            1.5561    10.8512    -4.5917 N.2     
  17 C17            0.8234    10.1171    -3.7835 C.2     
  18 C18            0.7244     8.8212    -4.1467 C.2     
  19 O19            2.8627    10.8584    -6.5458 O.3     
  20 C20            3.2432    12.1447    -6.3224 C.ar    
  21 C21            3.8865    12.8621    -7.3221 C.ar    
  22 C22            4.2725    14.1693    -7.0946 C.ar    
  23 C23            4.0172    14.7642    -5.8676 C.ar    
  24 C24            3.3751    14.0471    -4.8692 C.ar    
  25 C25            2.9838    12.7419    -5.0981 C.ar    
  26 O26            4.3969    16.0505    -5.6437 O.3     
  27 C27            4.1023    16.5993    -4.3576 C.3     
  28 C28            4.6008    18.0444    -4.2934 C.3     
  29 C29            3.8142    18.9000    -5.2885 C.3     
  30 C30            4.3984    18.5914    -2.8790 C.3     
  31 Cl31           4.2062    12.1170    -8.8571 Cl      
  32 H32           -1.7722     2.8596     1.1164 H       
  33 H33           -1.5069     0.3813     1.5874 H       
  34 H34           -0.9209     0.1155    -0.1410 H       
  35 H35            1.0166     1.6996     0.2723 H       
  36 H36            0.4306     1.9654     2.0008 H       
  37 H37           -1.4094     4.6786    -0.6120 H       
  38 H38           -0.7229     3.8051    -3.3127 H       
  39 H39           -3.4760     4.9473    -2.6552 H       
  40 H40           -2.8488     4.6263    -4.2898 H       
  41 H41           -3.1411     3.2759    -3.1676 H       
  42 H42            0.2872     5.8986    -4.6469 H       
  43 H43            0.3419    10.5173    -2.9034 H       
  44 H44            4.7731    14.7277    -7.8718 H       
  45 H45            3.1771    14.5103    -3.9139 H       
  46 H46            2.4795    12.1854    -4.3220 H       
  47 H47            3.0251    16.5789    -4.1919 H       
  48 H48            4.5995    16.0089    -3.5880 H       
  49 H49            5.6606    18.0747    -4.5465 H       
  50 H50            2.7544    18.8697    -5.0355 H       
  51 H51            4.1694    19.9294    -5.2428 H       
  52 H52            3.9584    18.5103    -6.2962 H       
  53 H53            4.9588    17.9819    -2.1701 H       
  54 H54            4.7536    19.6209    -2.8333 H       
  55 H55            3.3386    18.5611    -2.6259 H       
@<TRIPOS>BOND
   1    1    2 1
   2    1    3 1
   3    1    4 1
   4    1   32 1
   5    2    3 1
   6    2   33 1
   7    2   34 1
   8    3   35 1
   9    3   36 1
  10    4    5 2
  11    4    6 am
  12    6    7 1
  13    6   37 1
  14    7    8 1
  15    7   13 1
  16    7   38 1
  17    8   39 1
  18    8   40 1
  19    8   41 1
  20    9   10 1
  21    9   13 1
  22   10   11 2
  23   11   12 1
  24   11   18 1
  25   12   13 2
  26   12   42 1
  27   14   15 1
  28   14   18 1
  29   15   16 2
  30   15   19 1
  31   16   17 1
  32   17   18 2
  33   17   43 1
  34   19   20 1
  35   20   21 ar
  36   20   25 ar
  37   21   22 ar
  38   21   31 1
  39   22   23 ar
  40   22   44 1
  41   23   24 ar
  42   23   26 1
  43   24   25 ar
  44   24   45 1
  45   25   46 1
  46   26   27 1
  47   27   28 1
  48   27   47 1
  49   27   48 1
  50   28   29 1
  51   28   30 1
  52   28   49 1
  53   29   50 1
  54   29   51 1
  55   29   52 1
  56   30   53 1
  57   30   54 1
  58   30   55 1

#	End of record

