#	Name: ASD01720005
#	Creating user name:	WinNT
#	Creation time:	15. 06. 2019 19:22

#	Modifying user name:	WinNT
#	Modification time:	15. 06. 2019 19:22

#	Program:	/corina/corina34_cracker 3.40 0067  02.08.2006

@<TRIPOS>MOLECULE
ASD01720005
  21   20    0    0    0
SMALL
NO_CHARGES


@<TRIPOS>ATOM
   1 C1             1.0423     0.8713    -0.9960 C.3     
   2 C2             0.1035     0.5861     0.1779 C.3     
   3 C3            -0.6401     1.8677     0.5594 C.3     
   4 C4             0.2312     1.2627    -2.2043 C.2     
   5 O5             0.3361     2.3734    -2.6684 O.2     
   6 O6            -0.6078     0.3776    -2.7648 O.3     
   7 C7             0.9068     0.1015     1.3573 C.2     
   8 O8             1.4064     0.8979     2.1162 O.2     
   9 O9             1.0674    -1.2149     1.5646 O.3     
  10 C10           -1.6527     1.5605     1.6323 C.2     
  11 O11           -1.7678     0.4323     2.0492 O.2     
  12 O12           -2.4267     2.5403     2.1250 O.3     
  13 O13            1.9270     1.9389    -0.6500 O.3     
  14 H14            1.6231    -0.0229    -1.2224 H       
  15 H15           -0.6166    -0.1796    -0.1105 H       
  16 H16            0.0722     2.6038     0.9320 H       
  17 H17           -1.1497     2.2668    -0.3176 H       
  18 H18           -1.1068     0.6745    -3.5381 H       
  19 H19            1.5907    -1.4776     2.3342 H       
  20 H20           -3.0616     2.2949     2.8119 H       
  21 H21            1.4779     2.7681    -0.4358 H       
@<TRIPOS>BOND
   1    1    2 1
   2    1    4 1
   3    1   13 1
   4    1   14 1
   5    2    3 1
   6    2    7 1
   7    2   15 1
   8    3   10 1
   9    3   16 1
  10    3   17 1
  11    4    5 2
  12    4    6 1
  13    6   18 1
  14    7    8 2
  15    7    9 1
  16    9   19 1
  17   10   11 2
  18   10   12 1
  19   12   20 1
  20   13   21 1

#	End of record

