#	Name: ASD01410686
#	Creating user name:	WinNT
#	Creation time:	15. 06. 2019 19:18

#	Modifying user name:	WinNT
#	Modification time:	15. 06. 2019 19:18

#	Program:	/corina/corina34_cracker 3.40 0067  02.08.2006

@<TRIPOS>MOLECULE
ASD01410686
  68   72    0    0    0
SMALL
NO_CHARGES


@<TRIPOS>ATOM
   1 C1            -0.7255     2.0269    -0.8784 C.ar    
   2 C2            -1.3269    -0.2985    -0.7994 C.ar    
   3 C3            -2.6211     0.0436    -0.4317 C.ar    
   4 C4            -2.9672     1.3948    -0.2758 C.ar    
   5 C5            -2.0090     2.3845    -0.5076 C.ar    
   6 O6             0.2091     2.9895    -1.0987 O.3     
   7 C7             0.6879     3.1357    -2.3596 C.ar    
   8 N8            -3.5703    -0.9512    -0.2086 N.am    
   9 C9            -3.8182    -1.3769     1.0459 C.2     
  10 C10           -3.1409    -0.7321     2.1940 C.ar    
  11 O11           -4.5975    -2.2901     1.2349 O.2     
  12 N12           -2.2905     0.2651     1.9810 N.ar    
  13 C13           -2.7647    -0.5603     4.5533 C.ar    
  14 C14           -1.8795     0.4736     4.2860 C.ar    
  15 C15           -1.6684     0.8647     2.9719 C.ar    
  16 Br16          -0.9765     1.3471     5.6992 Br      
  17 N17            0.1640     2.4262    -3.3458 N.ar    
  18 C18            1.7196     4.0330    -2.6040 C.ar    
  19 C19            2.1990     4.1727    -3.8949 C.ar    
  20 C20            1.6264     3.4061    -4.9003 C.ar    
  21 C21            0.5996     2.5377    -4.5860 C.ar    
  22 C22           -3.4059    -1.1732     3.4887 C.ar    
  23 C23           -0.3862     0.6867    -1.0210 C.ar    
  24 C24           -4.2993    -1.5346    -1.3375 C.3     
  25 C25           -3.3206    -2.2746    -2.2727 C.3     
  26 C26           -2.9887    -1.2366    -3.3733 C.3     
  27 C27           -4.3462    -0.5235    -3.5912 C.3     
  28 C28           -4.9513    -0.4212    -2.1759 C.3     
  29 O29           -6.3658    -0.6161    -2.2330 O.3     
  30 C30           -7.1132     0.5918    -2.3889 C.3     
  31 C31           -8.5846     0.2696    -2.4369 C.ar    
  32 C32           -9.3232     0.2359    -1.2689 C.ar    
  33 C33          -10.6728    -0.0598    -1.3128 C.ar    
  34 C34          -11.2839    -0.3213    -2.5249 C.ar    
  35 C35          -10.5455    -0.2867    -3.6930 C.ar    
  36 C36           -9.1968     0.0132    -3.6494 C.ar    
  37 C37           -4.3385     1.7682     0.1142 C.2     
  38 O38           -5.1696     0.9047     0.3145 O.2     
  39 O39           -4.6707     3.0672     0.2488 O.3     
  40 C40            2.3088     4.8440    -1.4787 C.3     
  41 F41            3.3245     5.6661    -1.9785 F       
  42 F42            1.3100     5.6353    -0.9014 F       
  43 F43            2.8391     3.9833    -0.5116 F       
  44 H44           -1.0577    -1.3375    -0.9197 H       
  45 H45           -2.2698     3.4267    -0.3972 H       
  46 H46           -2.9461    -0.8837     5.5677 H       
  47 H47           -0.9835     1.6725     2.7599 H       
  48 H48            3.0001     4.8628    -4.1149 H       
  49 H49            1.9771     3.4910    -5.9182 H       
  50 H50            0.1509     1.9386    -5.3646 H       
  51 H51           -4.1015    -1.9813     3.6602 H       
  52 H52            0.6190     0.4147    -1.3071 H       
  53 H53           -5.0612    -2.2238    -0.9736 H       
  54 H54           -2.4180    -2.5593    -1.7321 H       
  55 H55           -3.7987    -3.1523    -2.7077 H       
  56 H56           -2.2337    -0.5319    -3.0246 H       
  57 H57           -2.6622    -1.7334    -4.2870 H       
  58 H58           -4.1921     0.4697    -4.0129 H       
  59 H59           -4.9899    -1.1183    -4.2393 H       
  60 H60           -4.7255     0.5532    -1.7428 H       
  61 H61           -6.9135     1.2539    -1.5464 H       
  62 H62           -6.8187     1.0842    -3.3157 H       
  63 H63           -8.8457     0.4402    -0.3219 H       
  64 H64          -11.2497    -0.0868    -0.4002 H       
  65 H65          -12.3382    -0.5530    -2.5592 H       
  66 H66          -11.0229    -0.4914    -4.6399 H       
  67 H67           -8.6199     0.0402    -4.5620 H       
  68 H68           -5.5821     3.2629     0.5062 H       
@<TRIPOS>BOND
   1    1   23 ar
   2    1    6 1
   3    1    5 ar
   4    2    3 ar
   5    2   23 ar
   6    2   44 1
   7    3    4 ar
   8    3    8 1
   9    4    5 ar
  10    4   37 1
  11    5   45 1
  12    6    7 1
  13    7   18 ar
  14    7   17 ar
  15    8    9 am
  16    8   24 1
  17    9   11 2
  18    9   10 1
  19   10   12 ar
  20   10   22 ar
  21   12   15 ar
  22   13   14 ar
  23   13   22 ar
  24   13   46 1
  25   14   15 ar
  26   14   16 1
  27   15   47 1
  28   17   21 ar
  29   18   19 ar
  30   18   40 1
  31   19   20 ar
  32   19   48 1
  33   20   21 ar
  34   20   49 1
  35   21   50 1
  36   22   51 1
  37   23   52 1
  38   24   25 1
  39   24   28 1
  40   24   53 1
  41   25   26 1
  42   25   54 1
  43   25   55 1
  44   26   27 1
  45   26   56 1
  46   26   57 1
  47   27   28 1
  48   27   58 1
  49   27   59 1
  50   28   29 1
  51   28   60 1
  52   29   30 1
  53   30   31 1
  54   30   61 1
  55   30   62 1
  56   31   32 ar
  57   31   36 ar
  58   32   33 ar
  59   32   63 1
  60   33   34 ar
  61   33   64 1
  62   34   35 ar
  63   34   65 1
  64   35   36 ar
  65   35   66 1
  66   36   67 1
  67   37   38 2
  68   37   39 1
  69   39   68 1
  70   40   41 1
  71   40   42 1
  72   40   43 1

#	End of record

