#	Name: ASD09740528
#	Creating user name:	WinNT
#	Creation time:	15. 06. 2019 21:23

#	Modifying user name:	WinNT
#	Modification time:	15. 06. 2019 21:23

#	Program:	/corina/corina34_cracker 3.40 0067  02.08.2006

@<TRIPOS>MOLECULE
ASD09740528
  59   63    0    0    0
SMALL
NO_CHARGES


@<TRIPOS>ATOM
   1 N1             0.0810     1.2276     0.3177 N.2     
   2 C2            -0.0094    -0.0762     0.2324 C.2     
   3 C3             1.2788     1.7403     0.3595 C.2     
   4 S4             2.4683     0.4433     0.2836 S.3     
   5 C5             1.1660    -0.7413     0.1974 C.2     
   6 C6             1.5896     3.1817     0.4546 C.ar    
   7 C7             0.5569     4.1148     0.5077 C.ar    
   8 C8             2.9202     3.6086     0.4972 C.ar    
   9 C9             3.2158     4.9518     0.5864 C.ar    
  10 C10            2.1952     5.8904     0.6351 C.ar    
  11 C11            0.8560     5.4732     0.5979 C.ar    
  12 O12            2.4920     7.2112     0.7237 O.3     
  13 C13            3.8684     7.5571     0.8904 C.3     
  14 C14            4.5487     7.6166    -0.4788 C.3     
  15 C15            3.9721     8.9234     1.5711 C.3     
  16 C16           -0.1994     6.4397     0.6475 C.1     
  17 N17           -1.0367     7.2065     0.6869 N.1     
  18 C18            1.3312    -2.2069     0.1034 C.ar    
  19 C19            2.1885    -2.7545    -0.8555 C.ar    
  20 C20            2.3382    -4.1236    -0.9382 C.ar    
  21 C21            1.6393    -4.9494    -0.0715 C.ar    
  22 C22            0.7899    -4.4128     0.8784 C.ar    
  23 C23            0.6361    -3.0455     0.9751 C.ar    
  24 C24            3.0496    -2.0798    -1.9014 C.3     
  25 C25            4.0684    -3.1536    -2.3391 C.3     
  26 C26            3.3109    -4.4662    -2.0465 C.3     
  27 N27            4.2472    -5.5062    -1.5996 N.3     
  28 C28            4.8820    -5.1322    -0.3273 C.3     
  29 C29            5.8019    -6.2670     0.1308 C.3     
  30 O30            6.7618    -6.5389    -0.8939 O.3     
  31 C31            6.1782    -6.9069    -2.1466 C.3     
  32 C32            5.2621    -5.7786    -2.6278 C.3     
  33 H33           -0.9606    -0.5860     0.1928 H       
  34 H34           -0.4718     3.7871     0.4787 H       
  35 H35            3.7194     2.8831     0.4604 H       
  36 H36            4.2459     5.2750     0.6189 H       
  37 H37            4.3598     6.8052     1.5079 H       
  38 H38            4.0574     8.3684    -1.0963 H       
  39 H39            5.5987     7.8804    -0.3516 H       
  40 H40            4.4749     6.6432    -0.9638 H       
  41 H41            3.4874     8.8810     2.5465 H       
  42 H42            5.0220     9.1872     1.6983 H       
  43 H43            3.4807     9.6752     0.9536 H       
  44 H44            1.7590    -6.0207    -0.1389 H       
  45 H45            0.2497    -5.0650     1.5486 H       
  46 H46           -0.0271    -2.6260     1.7171 H       
  47 H47            2.4402    -1.7684    -2.7497 H       
  48 H48            3.5659    -1.2220    -1.4704 H       
  49 H49            4.2929    -3.0644    -3.4020 H       
  50 H50            4.9786    -3.0902    -1.7429 H       
  51 H51            2.7718    -4.7977    -2.9339 H       
  52 H52            5.4668    -4.2229    -0.4659 H       
  53 H53            4.1133    -4.9601     0.4261 H       
  54 H54            6.3182    -5.9708     1.0439 H       
  55 H55            5.2092    -7.1618     0.3209 H       
  56 H56            6.9667    -7.0736    -2.8805 H       
  57 H57            5.5964    -7.8203    -2.0227 H       
  58 H58            4.7709    -6.0784    -3.5535 H       
  59 H59            5.8530    -4.8797    -2.8031 H       
@<TRIPOS>BOND
   1    1    2 1
   2    1    3 2
   3    2    5 2
   4    2   33 1
   5    3    4 1
   6    3    6 1
   7    4    5 1
   8    5   18 1
   9    6    7 ar
  10    6    8 ar
  11    7   11 ar
  12    7   34 1
  13    8    9 ar
  14    8   35 1
  15    9   10 ar
  16    9   36 1
  17   10   11 ar
  18   10   12 1
  19   11   16 1
  20   12   13 1
  21   13   14 1
  22   13   15 1
  23   13   37 1
  24   14   38 1
  25   14   39 1
  26   14   40 1
  27   15   41 1
  28   15   42 1
  29   15   43 1
  30   16   17 3
  31   18   19 ar
  32   18   23 ar
  33   19   20 ar
  34   19   24 1
  35   20   21 ar
  36   20   26 1
  37   21   22 ar
  38   21   44 1
  39   22   23 ar
  40   22   45 1
  41   23   46 1
  42   24   25 1
  43   24   47 1
  44   24   48 1
  45   25   26 1
  46   25   49 1
  47   25   50 1
  48   26   27 1
  49   26   51 1
  50   27   28 1
  51   27   32 1
  52   28   29 1
  53   28   52 1
  54   28   53 1
  55   29   30 1
  56   29   54 1
  57   29   55 1
  58   30   31 1
  59   31   32 1
  60   31   56 1
  61   31   57 1
  62   32   58 1
  63   32   59 1

#	End of record

