#	Name: ASD09530064
#	Creating user name:	WinNT
#	Creation time:	15. 06. 2019 21:22

#	Modifying user name:	WinNT
#	Modification time:	15. 06. 2019 21:22

#	Program:	/corina/corina34_cracker 3.40 0067  02.08.2006

@<TRIPOS>MOLECULE
ASD09530064
  62   66    0    0    0
SMALL
NO_CHARGES


@<TRIPOS>ATOM
   1 C1            -0.0184     1.5028     0.0103 C.2     
   2 C2             0.0021    -0.0041     0.0020 C.3     
   3 O3             1.0236     2.1234     0.0037 O.2     
   4 N4            -1.1946     2.1607     0.0195 N.am    
   5 C5            -1.2145     3.6256     0.0275 C.3     
   6 C6            -1.0888     4.1294     1.4667 C.3     
   7 C7            -2.5117     4.1136    -0.5642 C.ar    
   8 C8            -2.5696     5.3713    -1.1359 C.ar    
   9 C9            -3.7648     5.8135    -1.6782 C.ar    
  10 C10           -4.8692     4.9660    -1.6252 C.ar    
  11 C11           -4.7319     3.7166    -1.0341 C.ar    
  12 N12           -3.5740     3.3332    -0.5342 N.ar    
  13 N13           -6.0967     5.3670    -2.1583 N.pl3   
  14 C14           -7.2511     4.4671    -2.0967 C.3     
  15 C15           -8.4602     5.1435    -2.7458 C.3     
  16 F16           -8.1686     5.4371    -4.0822 F       
  17 F17           -9.5626     4.2841    -2.6870 F       
  18 F18           -8.7551     6.3277    -2.0618 F       
  19 C19            1.4295    -0.4870    -0.0142 C.ar    
  20 C20            2.0945    -0.7145     1.1768 C.ar    
  21 C21            3.4026    -1.1571     1.1653 C.ar    
  22 C22            4.0503    -1.3737    -0.0440 C.ar    
  23 C23            3.3797    -1.1442    -1.2383 C.ar    
  24 C24            2.0697    -0.7071    -1.2200 C.ar    
  25 N25            5.3766    -1.8219    -0.0591 N.pl3   
  26 N26            6.3637    -1.4682     0.8667 N.2     
  27 C27            7.4876    -2.0565     0.5696 C.2     
  28 C28            7.2674    -2.8621    -0.6274 C.ar    
  29 C29            8.0811    -3.6976    -1.4007 C.ar    
  30 C30            7.5577    -4.3266    -2.4931 C.ar    
  31 C31            6.2256    -4.1445    -2.8442 C.ar    
  32 C32            5.4117    -3.3337    -2.1047 C.ar    
  33 C33            5.9160    -2.6841    -0.9814 C.ar    
  34 C34            8.7841    -1.9281     1.3271 C.3     
  35 C35            9.3945    -0.5307     1.4508 C.3     
  36 C36            8.7485    -1.1939     2.6689 C.3     
  37 H37           -0.4983    -0.3791     0.8948 H       
  38 H38           -0.5153    -0.3696    -0.8850 H       
  39 H39           -2.0280     1.6644     0.0207 H       
  40 H40           -0.3805     4.0035    -0.5638 H       
  41 H41           -0.1506     3.7764     1.8947 H       
  42 H42           -1.1036     5.2193     1.4727 H       
  43 H43           -1.9228     3.7515     2.0581 H       
  44 H44           -1.6930     6.0017    -1.1589 H       
  45 H45           -3.8389     6.7913    -2.1307 H       
  46 H46           -5.5813     3.0512    -0.9870 H       
  47 H47           -6.1847     6.2412    -2.5692 H       
  48 H48           -7.0214     3.5444    -2.6297 H       
  49 H49           -7.4783     4.2383    -1.0555 H       
  50 H50            1.5903    -0.5456     2.1168 H       
  51 H51            3.9215    -1.3343     2.0958 H       
  52 H52            3.8806    -1.3117    -2.1804 H       
  53 H53            1.5462    -0.5327    -2.1484 H       
  54 H54            9.1176    -3.8437    -1.1348 H       
  55 H55            8.1849    -4.9716    -3.0905 H       
  56 H56            5.8290    -4.6498    -3.7123 H       
  57 H57            4.3781    -3.2007    -2.3884 H       
  58 H58            9.4696    -2.7702     1.2318 H       
  59 H59           10.4817    -0.4534     1.4373 H       
  60 H60            8.8585     0.2958     0.9843 H       
  61 H61            7.7874    -0.8036     3.0038 H       
  62 H62            9.4107    -1.5529     3.4567 H       
@<TRIPOS>BOND
   1    1    2 1
   2    1    3 2
   3    1    4 am
   4    2   19 1
   5    2   37 1
   6    2   38 1
   7    4    5 1
   8    4   39 1
   9    5    6 1
  10    5    7 1
  11    5   40 1
  12    6   41 1
  13    6   42 1
  14    6   43 1
  15    7    8 ar
  16    7   12 ar
  17    8    9 ar
  18    8   44 1
  19    9   10 ar
  20    9   45 1
  21   10   11 ar
  22   10   13 1
  23   11   12 ar
  24   11   46 1
  25   13   14 1
  26   13   47 1
  27   14   15 1
  28   14   48 1
  29   14   49 1
  30   15   16 1
  31   15   17 1
  32   15   18 1
  33   19   20 ar
  34   19   24 ar
  35   20   21 ar
  36   20   50 1
  37   21   22 ar
  38   21   51 1
  39   22   23 ar
  40   22   25 1
  41   23   24 ar
  42   23   52 1
  43   24   53 1
  44   25   26 1
  45   25   33 1
  46   26   27 2
  47   27   28 1
  48   27   34 1
  49   28   29 ar
  50   28   33 ar
  51   29   30 ar
  52   29   54 1
  53   30   31 ar
  54   30   55 1
  55   31   32 ar
  56   31   56 1
  57   32   33 ar
  58   32   57 1
  59   34   35 1
  60   34   36 1
  61   34   58 1
  62   35   36 1
  63   35   59 1
  64   35   60 1
  65   36   61 1
  66   36   62 1

#	End of record

