#	Name: ASD03910095
#	Creating user name:	WinNT
#	Creation time:	15. 06. 2019 20:47

#	Modifying user name:	WinNT
#	Modification time:	15. 06. 2019 20:47

#	Program:	/corina/corina34_cracker 3.40 0067  02.08.2006

@<TRIPOS>MOLECULE
ASD03910095
  48   49    0    0    0
SMALL
NO_CHARGES


@<TRIPOS>ATOM
   1 C1             0.5281    -0.4269    -1.0798 C.3     
   2 C2            -1.6461     0.7334     3.9512 C.ar    
   3 C3            -0.9130     0.4159     5.0797 C.ar    
   4 C4             0.3279    -0.1811     4.9555 C.ar    
   5 C5             0.8380    -0.4627     3.7029 C.ar    
   6 C6             0.1044    -0.1452     2.5691 C.ar    
   7 C7            -1.1403     0.4542     2.6963 C.ar    
   8 O8             0.6044    -0.4204     1.3357 O.3     
   9 C9            -0.1802    -0.0149     0.2123 C.3     
  10 C10           -0.3564     1.5047     0.2351 C.3     
  11 C11           -1.4672     0.7216     6.4473 C.3     
  12 C12           -2.2651    -0.4576     6.9411 C.2     
  13 N13           -2.8586    -0.4109     8.1502 N.am    
  14 C14           -4.8912    -3.4730     8.2634 C.ar    
  15 C15           -4.2278    -2.3648     7.7741 C.ar    
  16 C16           -3.5322    -1.5341     8.6428 C.ar    
  17 C17           -3.5061    -1.8209    10.0014 C.ar    
  18 C18           -4.1715    -2.9305    10.4843 C.ar    
  19 C19           -4.8676    -3.7528     9.6174 C.ar    
  20 O20           -2.3730    -1.4488     6.2504 O.2     
  21 C21           -4.1437    -3.2424    11.9585 C.3     
  22 C22           -5.6467    -4.3747     7.3215 C.3     
  23 C23           -1.5317    -0.6784     0.2778 C.2     
  24 O24           -1.7959    -1.4221     1.1927 O.2     
  25 O25           -2.4420    -0.4431    -0.6802 O.3     
  26 H26            0.7321    -1.4974    -1.0569 H       
  27 H27           -0.1099    -0.1968    -1.9331 H       
  28 H28            1.4666     0.1200    -1.1699 H       
  29 H29           -2.6169     1.1959     4.0509 H       
  30 H30            0.8989    -0.4274     5.8385 H       
  31 H31            1.8075    -0.9288     3.6064 H       
  32 H32           -1.7134     0.7021     1.8152 H       
  33 H33            0.6059     1.9848     0.0573 H       
  34 H34           -1.0595     1.8007    -0.5435 H       
  35 H35           -0.7412     1.8113     1.2078 H       
  36 H36           -0.6460     0.9188     7.1364 H       
  37 H37           -2.1122     1.5984     6.3903 H       
  38 H38           -2.8189     0.4013     8.6789 H       
  39 H39           -4.2497    -2.1447     6.7170 H       
  40 H40           -2.9657    -1.1770    10.6794 H       
  41 H41           -5.3872    -4.6199     9.9975 H       
  42 H42           -4.9834    -2.7509    12.4497 H       
  43 H43           -4.2182    -4.3202    12.1033 H       
  44 H44           -3.2094    -2.8818    12.3886 H       
  45 H45           -4.9826    -5.1589     6.9582 H       
  46 H46           -6.4882    -4.8259     7.8472 H       
  47 H47           -6.0159    -3.7914     6.4779 H       
  48 H48           -3.2946    -0.8913    -0.5952 H       
@<TRIPOS>BOND
   1    1    9 1
   2    1   26 1
   3    1   27 1
   4    1   28 1
   5    2    3 ar
   6    2    7 ar
   7    2   29 1
   8    3    4 ar
   9    3   11 1
  10    4    5 ar
  11    4   30 1
  12    5    6 ar
  13    5   31 1
  14    6    7 ar
  15    6    8 1
  16    7   32 1
  17    8    9 1
  18    9   10 1
  19    9   23 1
  20   10   33 1
  21   10   34 1
  22   10   35 1
  23   11   12 1
  24   11   36 1
  25   11   37 1
  26   12   13 am
  27   12   20 2
  28   13   16 1
  29   13   38 1
  30   14   15 ar
  31   14   22 1
  32   14   19 ar
  33   15   16 ar
  34   15   39 1
  35   16   17 ar
  36   17   18 ar
  37   17   40 1
  38   18   19 ar
  39   18   21 1
  40   19   41 1
  41   21   42 1
  42   21   43 1
  43   21   44 1
  44   22   45 1
  45   22   46 1
  46   22   47 1
  47   23   24 2
  48   23   25 1
  49   25   48 1

#	End of record

