#	Name: ASD01948306
#	Creating user name:	WinNT
#	Creation time:	15. 06. 2019 20:14

#	Modifying user name:	WinNT
#	Modification time:	15. 06. 2019 20:14

#	Program:	/corina/corina34_cracker 3.40 0067  02.08.2006

@<TRIPOS>MOLECULE
ASD01948306
  40   41    0    0    0
SMALL
NO_CHARGES


@<TRIPOS>ATOM
   1 C1            -0.1171     1.6914    -0.1029 C.2     
   2 N2            -0.0931     0.3352    -0.2464 N.am    
   3 C3             1.0707    -0.3339    -0.3389 C.2     
   4 C4             2.2767     1.7323    -0.1436 C.2     
   5 C5             1.0335     2.4026    -0.0495 C.2     
   6 C6             2.9601     3.4836    -2.2104 C.ar    
   7 C7             3.7589     3.3880    -1.0789 C.ar    
   8 N8             3.4645     2.4422    -0.0906 N.pl3   
   9 C9             3.2532     4.4179    -3.1848 C.ar    
  10 C10            4.3421     5.2584    -3.0352 C.ar    
  11 C11            5.1408     5.1671    -1.9091 C.ar    
  12 C12            4.8528     4.2340    -0.9300 C.ar    
  13 N13            0.9939     3.7988     0.0980 N.am    
  14 S14           -0.4528     4.5640     0.3509 S.o2    
  15 N15           -1.0077     4.0849     1.8358 N.am    
  16 O16            1.0653    -1.5489    -0.4673 O.2     
  17 C17           -1.3558    -0.4057    -0.3003 C.3     
  18 F18            5.6325     4.1446     0.1697 F       
  19 Br19           4.7391     6.5350    -4.3725 Br      
  20 C20           -0.6442     4.8455     3.0340 C.3     
  21 C21           -1.8621     2.9005     1.9513 C.3     
  22 O22           -0.1599     5.9502     0.4602 O.2     
  23 O23           -1.3596     4.0343    -0.6063 O.2     
  24 C24            2.2862     0.3553    -0.2891 C.2     
  25 H25           -1.0651     2.2042    -0.0356 H       
  26 H26            2.1127     2.8250    -2.3308 H       
  27 H27            4.0923     2.2838     0.6316 H       
  28 H28            2.6317     4.4921    -4.0649 H       
  29 H29            5.9902     5.8242    -1.7953 H       
  30 H30            1.8139     4.3149     0.0518 H       
  31 H31           -1.6886    -0.4816    -1.3354 H       
  32 H32           -1.2083    -1.4054     0.1082 H       
  33 H33           -2.1101     0.1188     0.2863 H       
  34 H34           -1.3873     5.6234     3.2099 H       
  35 H35           -0.6094     4.1755     3.8930 H       
  36 H36            0.3343     5.3036     2.8905 H       
  37 H37           -1.2949     2.0142     1.6668 H       
  38 H38           -2.2039     2.7980     2.9812 H       
  39 H39           -2.7232     3.0079     1.2917 H       
  40 H40            3.2213    -0.1800    -0.3627 H       
@<TRIPOS>BOND
   1    1    2 1
   2    1    5 2
   3    1   25 1
   4    2    3 am
   5    2   17 1
   6    3   24 1
   7    3   16 2
   8    4    5 1
   9    4    8 1
  10    4   24 2
  11    5   13 1
  12    6    7 ar
  13    6    9 ar
  14    6   26 1
  15    7    8 1
  16    7   12 ar
  17    8   27 1
  18    9   10 ar
  19    9   28 1
  20   10   11 ar
  21   10   19 1
  22   11   12 ar
  23   11   29 1
  24   12   18 1
  25   13   14 am
  26   13   30 1
  27   14   15 am
  28   14   22 2
  29   14   23 2
  30   15   20 1
  31   15   21 1
  32   17   31 1
  33   17   32 1
  34   17   33 1
  35   20   34 1
  36   20   35 1
  37   20   36 1
  38   21   37 1
  39   21   38 1
  40   21   39 1
  41   24   40 1

#	End of record

