#	Name: ASD08170797
#	Creating user name:	WinNT
#	Creation time:	15. 06. 2019 21:18

#	Modifying user name:	WinNT
#	Modification time:	15. 06. 2019 21:18

#	Program:	/corina/corina34_cracker 3.40 0067  02.08.2006

@<TRIPOS>MOLECULE
ASD08170797
  60   63    0    0    0
SMALL
NO_CHARGES


@<TRIPOS>ATOM
   1 C1            -0.0162     1.3436     0.0094 C.2     
   2 N2             0.0021    -0.0041     0.0020 N.am    
   3 C3             1.2158    -0.6830    -0.0132 C.2     
   4 S4             1.4076    -2.3853    -0.0242 S.3     
   5 C5             3.1581    -2.1679    -0.0397 C.2     
   6 C6             4.1900    -3.2660    -0.0555 C.3     
   7 C7             5.9637    -5.1397     2.8027 C.3     
   8 C8             6.9956    -6.2378     2.7870 C.2     
   9 S9             6.6701    -7.9714     2.7808 S.3     
  10 C10            8.3571    -8.2685     2.7631 C.2     
  11 N11            2.3916    -0.1314    -0.0271 N.2     
  12 N12            3.3971    -0.8949    -0.0352 N.2     
  13 N13            8.2809    -6.0781     2.7699 N.2     
  14 N14            8.9805    -7.1290     2.7633 N.2     
  15 O15            1.0258     1.9642     0.0028 O.2     
  16 C16           -1.3314     2.0792     0.0197 C.3     
  17 N17            8.9594    -9.5220     2.7510 N.am    
  18 C18           10.3032    -9.6239     2.7376 C.2     
  19 C19           10.9559   -10.9822     2.7246 C.3     
  20 O20           10.9873    -8.6224     2.7361 O.2     
  21 C21            4.5530    -3.6454     1.3816 C.3     
  22 C22            5.6007    -4.7603     1.3656 C.3     
  23 O23           -1.0924     3.4837    -0.0913 O.3     
  24 C24           10.6445   -11.7015     4.0117 C.ar    
  25 O25           12.3707   -10.8296     2.5943 O.3     
  26 C26            9.6446   -12.6553     4.0461 C.ar    
  27 C27            9.3590   -13.3151     5.2268 C.ar    
  28 C28           10.0737   -13.0213     6.3730 C.ar    
  29 C29           11.0742   -12.0681     6.3385 C.ar    
  30 C30           11.3627   -11.4115     5.1567 C.ar    
  31 C31           -2.0568     1.7934     1.3093 C.ar    
  32 C32           -2.9984     0.7828     1.3633 C.ar    
  33 C33           -1.7766     2.5381     2.4397 C.ar    
  34 C34           -2.4420     2.2760     3.6226 C.ar    
  35 C35           -3.3880     1.2694     3.6751 C.ar    
  36 C36           -3.6639     0.5207     2.5462 C.ar    
  37 H37           -0.8313    -0.5005     0.0073 H       
  38 H38            3.7854    -4.1375    -0.5701 H       
  39 H39            5.0824    -2.9185    -0.5760 H       
  40 H40            5.0713    -5.4871     3.3232 H       
  41 H41            6.3683    -4.2682     3.3174 H       
  42 H42           -1.9402     1.7468    -0.8211 H       
  43 H43            8.4123   -10.3230     2.7523 H       
  44 H44           10.5739   -11.5607     1.8835 H       
  45 H45            4.9576    -2.7739     1.8963 H       
  46 H46            3.6606    -3.9929     1.9021 H       
  47 H47            6.4931    -4.4128     0.8451 H       
  48 H48            5.1961    -5.6318     0.8510 H       
  49 H49           -0.5555     3.8491     0.6252 H       
  50 H50           12.7793   -10.3236     3.3100 H       
  51 H51            9.0862   -12.8848     3.1506 H       
  52 H52            8.5773   -14.0598     5.2538 H       
  53 H53            9.8501   -13.5362     7.2956 H       
  54 H54           11.6323   -11.8384     7.2341 H       
  55 H55           12.1445   -10.6668     5.1297 H       
  56 H56           -3.2144     0.1983     0.4812 H       
  57 H57           -1.0375     3.3246     2.3987 H       
  58 H58           -2.2225     2.8573     4.5059 H       
  59 H59           -3.9076     1.0643     4.5994 H       
  60 H60           -4.4030    -0.2658     2.5872 H       
@<TRIPOS>BOND
   1    1    2 am
   2    1   15 2
   3    1   16 1
   4    2    3 1
   5    2   37 1
   6    3    4 1
   7    3   11 2
   8    4    5 1
   9    5    6 1
  10    5   12 2
  11    6   21 1
  12    6   38 1
  13    6   39 1
  14    7    8 1
  15    7   22 1
  16    7   40 1
  17    7   41 1
  18    8    9 1
  19    8   13 2
  20    9   10 1
  21   10   17 1
  22   10   14 2
  23   11   12 1
  24   13   14 1
  25   16   23 1
  26   16   31 1
  27   16   42 1
  28   17   18 am
  29   17   43 1
  30   18   19 1
  31   18   20 2
  32   19   24 1
  33   19   25 1
  34   19   44 1
  35   21   22 1
  36   21   45 1
  37   21   46 1
  38   22   47 1
  39   22   48 1
  40   23   49 1
  41   24   26 ar
  42   24   30 ar
  43   25   50 1
  44   26   27 ar
  45   26   51 1
  46   27   28 ar
  47   27   52 1
  48   28   29 ar
  49   28   53 1
  50   29   30 ar
  51   29   54 1
  52   30   55 1
  53   31   32 ar
  54   31   33 ar
  55   32   36 ar
  56   32   56 1
  57   33   34 ar
  58   33   57 1
  59   34   35 ar
  60   34   58 1
  61   35   36 ar
  62   35   59 1
  63   36   60 1

#	End of record

