#	Name: ASD02508390
#	Creating user name:	WinNT
#	Creation time:	15. 06. 2019 20:24

#	Modifying user name:	WinNT
#	Modification time:	15. 06. 2019 20:24

#	Program:	/corina/corina34_cracker 3.40 0067  02.08.2006

@<TRIPOS>MOLECULE
ASD02508390
  40   43    0    0    0
SMALL
NO_CHARGES


@<TRIPOS>ATOM
   1 C1            -0.0180     1.3964    -0.1077 C.2     
   2 C2             0.0030     0.0053     0.1195 C.2     
   3 C3             1.2947    -0.3770     0.1726 C.2     
   4 N4             2.0750     0.7291    -0.0138 N.pl3   
   5 C5             1.2616     1.8136    -0.1852 C.2     
   6 C6             3.4729     0.7481    -0.0267 C.ar    
   7 C7             4.1564     1.6788     0.7484 C.ar    
   8 N8             4.1333    -0.1229    -0.7717 N.ar    
   9 C9             5.4518    -0.1398    -0.8126 C.ar    
  10 C10            6.1952     0.7586    -0.0728 C.ar    
  11 C11            5.5412     1.6860     0.7264 C.ar    
  12 S12            1.8763    -2.0191     0.4373 S.o2    
  13 O13            1.8547    -2.6616    -0.8299 O.2     
  14 O14            3.0492    -1.9062     1.2316 O.2     
  15 N15            0.7504    -2.7929     1.3733 N.am    
  16 C16           -0.5349    -3.0263     0.8720 C.ar    
  17 C17           -0.6994    -3.5139    -0.4173 C.ar    
  18 C18           -1.9687    -3.7449    -0.9138 C.ar    
  19 C19           -3.0796    -3.4902    -0.1271 C.ar    
  20 C20           -2.9180    -3.0008     1.1672 C.ar    
  21 C21           -1.6461    -2.7756     1.6661 C.ar    
  22 Cl22           3.2859     2.8161     1.7294 Cl      
  23 O23           -4.4156    -3.6306    -0.3762 O.3     
  24 C24           -5.0514    -3.6110     0.9155 C.3     
  25 O25           -4.1513    -2.8347     1.7281 O.3     
  26 C26            7.7009     0.7287    -0.1283 C.3     
  27 F27            8.1156    -0.2902    -0.9926 F       
  28 F28            8.1748     1.9590    -0.5963 F       
  29 F29            8.2101     0.4896     1.1527 F       
  30 H30           -0.8983     2.0143    -0.2064 H       
  31 H31           -0.8582    -0.6369     0.2307 H       
  32 H32            1.5875     2.8293    -0.3539 H       
  33 H33            5.9565    -0.8661    -1.4324 H       
  34 H34            6.0992     2.3994     1.3146 H       
  35 H35            0.9820    -3.0844     2.2690 H       
  36 H36            0.1652    -3.7126    -1.0333 H       
  37 H37           -2.0942    -4.1242    -1.9171 H       
  38 H38           -1.5186    -2.3962     2.6692 H       
  39 H39           -6.0265    -3.1276     0.8552 H       
  40 H40           -5.1480    -4.6224     1.3102 H       
@<TRIPOS>BOND
   1    1    2 1
   2    1    5 2
   3    1   30 1
   4    2    3 2
   5    2   31 1
   6    3    4 1
   7    3   12 1
   8    4    5 1
   9    4    6 1
  10    5   32 1
  11    6    7 ar
  12    6    8 ar
  13    7   22 1
  14    7   11 ar
  15    8    9 ar
  16    9   10 ar
  17    9   33 1
  18   10   11 ar
  19   10   26 1
  20   11   34 1
  21   12   13 2
  22   12   14 2
  23   12   15 am
  24   15   16 1
  25   15   35 1
  26   16   17 ar
  27   16   21 ar
  28   17   18 ar
  29   17   36 1
  30   18   19 ar
  31   18   37 1
  32   19   20 ar
  33   19   23 1
  34   20   21 ar
  35   20   25 1
  36   21   38 1
  37   23   24 1
  38   24   25 1
  39   24   39 1
  40   24   40 1
  41   26   27 1
  42   26   28 1
  43   26   29 1

#	End of record

