#	Name: ASD03082045
#	Creating user name:	WinNT
#	Creation time:	15. 06. 2019 20:27

#	Modifying user name:	WinNT
#	Modification time:	15. 06. 2019 20:27

#	Program:	/corina/corina34_cracker 3.40 0067  02.08.2006

@<TRIPOS>MOLECULE
ASD03082045
  68   72    0    0    0
SMALL
NO_CHARGES


@<TRIPOS>ATOM
   1 C1             0.0698     1.2488    -2.4504 C.3     
   2 C2             0.1637    -0.2774    -2.3874 C.3     
   3 N3             1.3806    -0.7231    -3.0779 N.3     
   4 C4             2.5849    -0.1876    -2.4304 C.3     
   5 C5             2.5633     1.3413    -2.4947 C.3     
   6 C6             1.3078     1.8593    -1.7877 C.3     
   7 C7             3.8074     1.8994    -1.8007 C.3     
   8 O8             3.8470     3.3416    -1.9645 O.3     
   9 C9             4.8876     3.9921    -1.4080 C.2     
  10 C10            4.9937     5.4578    -1.5340 C.ar    
  11 O11            5.7385     3.3713    -0.8024 O.2     
  12 C12            4.0959     6.1603    -2.3387 C.ar    
  13 C13            4.1996     7.5312    -2.4523 C.ar    
  14 C14            5.1910     8.2181    -1.7718 C.ar    
  15 C15            6.0886     7.5399    -0.9712 C.ar    
  16 C16            5.9972     6.1576    -0.8388 C.ar    
  17 C17            6.9583     5.4257     0.0193 C.ar    
  18 C18            8.3293     5.5453    -0.2055 C.ar    
  19 C19            9.2195     4.8617     0.5972 C.ar    
  20 C20            8.7542     4.0586     1.6231 C.ar    
  21 C21            7.3952     3.9360     1.8509 C.ar    
  22 C22            6.4955     4.6193     1.0585 C.ar    
  23 C23            1.4336    -2.1890    -3.1580 C.3     
  24 C24            0.3010    -2.6919    -4.0553 C.3     
  25 C25            0.3561    -4.2187    -4.1386 C.3     
  26 N26           -0.7284    -4.7003    -4.9978 N.pl3   
  27 N27           -1.9790    -4.4386    -4.8476 N.2     
  28 N28           -2.6723    -5.0109    -5.7674 N.2     
  29 C29           -1.8407    -5.6919    -6.5760 C.2     
  30 C30           -0.5830    -5.4900    -6.0856 C.2     
  31 C31           -2.2150    -6.4967    -7.7659 C.ar    
  32 C32           -3.5511    -6.6029    -8.1459 C.ar    
  33 C33           -3.8936    -7.3525    -9.2530 C.ar    
  34 C34           -2.9131    -7.9980    -9.9846 C.ar    
  35 C35           -1.5850    -7.8962    -9.6115 C.ar    
  36 C36           -1.2308    -7.1437    -8.5099 C.ar    
  37 H37            0.0198     1.5677    -3.4916 H       
  38 H38           -0.8254     1.5804    -1.9243 H       
  39 H39            0.1997    -0.5963    -1.3457 H       
  40 H40           -0.7094    -0.7152    -2.8712 H       
  41 H41            2.6096    -0.5069    -1.3885 H       
  42 H42            3.4704    -0.5603    -2.9454 H       
  43 H43            2.5526     1.6616    -3.5366 H       
  44 H44            1.2661     2.9455    -1.8687 H       
  45 H45            1.3371     1.5723    -0.7366 H       
  46 H46            3.7715     1.6552    -0.7390 H       
  47 H47            4.6998     1.4586    -2.2450 H       
  48 H48            3.3205     5.6310    -2.8725 H       
  49 H49            3.5035     8.0722    -3.0762 H       
  50 H50            5.2628     9.2914    -1.8681 H       
  51 H51            6.8594     8.0828    -0.4443 H       
  52 H52            8.6936     6.1714    -1.0065 H       
  53 H53           10.2815     4.9535     0.4241 H       
  54 H54            9.4547     3.5249     2.2483 H       
  55 H55            7.0378     3.3073     2.6531 H       
  56 H56            5.4348     4.5228     1.2373 H       
  57 H57            2.3921    -2.4956    -3.5765 H       
  58 H58            1.3211    -2.6116    -2.1596 H       
  59 H59           -0.6576    -2.3853    -3.6367 H       
  60 H60            0.4134    -2.2693    -5.0536 H       
  61 H61            1.3147    -4.5253    -4.5572 H       
  62 H62            0.2437    -4.6414    -3.1402 H       
  63 H63            0.3402    -5.8858    -6.4824 H       
  64 H64           -4.3175    -6.0999    -7.5749 H       
  65 H65           -4.9291    -7.4356    -9.5485 H       
  66 H66           -3.1854    -8.5838   -10.8500 H       
  67 H67           -0.8234    -8.4025   -10.1860 H       
  68 H68           -0.1936    -7.0646    -8.2196 H       
@<TRIPOS>BOND
   1    1    2 1
   2    1    6 1
   3    1   37 1
   4    1   38 1
   5    2    3 1
   6    2   39 1
   7    2   40 1
   8    3    4 1
   9    3   23 1
  10    4    5 1
  11    4   41 1
  12    4   42 1
  13    5    6 1
  14    5    7 1
  15    5   43 1
  16    6   44 1
  17    6   45 1
  18    7    8 1
  19    7   46 1
  20    7   47 1
  21    8    9 1
  22    9   10 1
  23    9   11 2
  24   10   12 ar
  25   10   16 ar
  26   12   13 ar
  27   12   48 1
  28   13   14 ar
  29   13   49 1
  30   14   15 ar
  31   14   50 1
  32   15   16 ar
  33   15   51 1
  34   16   17 1
  35   17   18 ar
  36   17   22 ar
  37   18   19 ar
  38   18   52 1
  39   19   20 ar
  40   19   53 1
  41   20   21 ar
  42   20   54 1
  43   21   22 ar
  44   21   55 1
  45   22   56 1
  46   23   24 1
  47   23   57 1
  48   23   58 1
  49   24   25 1
  50   24   59 1
  51   24   60 1
  52   25   26 1
  53   25   61 1
  54   25   62 1
  55   26   27 1
  56   26   30 1
  57   27   28 2
  58   28   29 1
  59   29   30 2
  60   29   31 1
  61   30   63 1
  62   31   32 ar
  63   31   36 ar
  64   32   33 ar
  65   32   64 1
  66   33   34 ar
  67   33   65 1
  68   34   35 ar
  69   34   66 1
  70   35   36 ar
  71   35   67 1
  72   36   68 1

#	End of record

