#	Name: ASD02030281
#	Creating user name:	WinNT
#	Creation time:	15. 06. 2019 20:15

#	Modifying user name:	WinNT
#	Modification time:	15. 06. 2019 20:15

#	Program:	/corina/corina34_cracker 3.40 0067  02.08.2006

@<TRIPOS>MOLECULE
ASD02030281
  56   60    0    0    0
SMALL
NO_CHARGES


@<TRIPOS>ATOM
   1 N1            -0.3624     1.4555    -0.3944 N.am    
   2 C2            -0.3827    -0.0134    -0.3524 C.3     
   3 C3            -1.1662    -0.4574     0.8891 C.3     
   4 N4            -2.4428     0.2699     0.9237 N.am    
   5 C5            -2.4225     1.7388     0.8816 C.3     
   6 C6            -1.6388     2.1829    -0.3542 C.3     
   7 C7             0.8060     2.1237    -0.4629 C.2     
   8 C8             2.0849     1.3873    -0.3758 C.2     
   9 N9             3.2843     1.9243    -0.3135 N.2     
  10 N10            2.2270     0.0496    -0.3406 N.2     
  11 C11            3.5087    -0.2035    -0.2628 C.2     
  12 N12            4.1574     0.9790    -0.2467 N.pl3   
  13 C13            5.5462     1.1504    -0.1702 C.ar    
  14 O14            0.8083     3.3320    -0.5962 O.2     
  15 C15           -3.6113    -0.3984     0.9922 C.2     
  16 C16           -3.6221    -1.8731     0.9391 C.ar    
  17 O17           -4.6565     0.2139     1.0977 O.2     
  18 C18            6.0897     2.4277    -0.1618 C.ar    
  19 C19            7.4602     2.5934    -0.0863 C.ar    
  20 C20            8.2891     1.4874    -0.0197 C.ar    
  21 C21            7.7496     0.2142    -0.0284 C.ar    
  22 C22            6.3809     0.0429    -0.0970 C.ar    
  23 C23           -1.3719     3.6876    -0.2795 C.3     
  24 Cl24           8.1416     4.1900    -0.0757 Cl      
  25 C25           -2.7246    -2.6063     1.7288 C.ar    
  26 C26           -4.5275    -2.5300     0.1092 C.ar    
  27 C27           -4.5348    -3.9160     0.0620 C.ar    
  28 C28           -3.6245    -4.6418     0.8555 C.ar    
  29 C29           -2.7246    -3.9677     1.6882 C.ar    
  30 N30           -5.2863    -4.8353    -0.6378 N.pl3   
  31 C31           -4.8868    -6.1013    -0.3173 C.2     
  32 C32           -3.8863    -6.0540     0.5797 C.2     
  33 C33           -6.3543    -4.5039    -1.5842 C.3     
  34 H34           -0.8688    -0.3983    -1.2488 H       
  35 H35            0.6379    -0.3918    -0.2955 H       
  36 H36           -1.3571    -1.5293     0.8372 H       
  37 H37           -0.5906    -0.2288     1.7861 H       
  38 H38           -3.4431     2.1172     0.8248 H       
  39 H39           -1.9364     2.1237     1.7781 H       
  40 H40           -2.2123     1.9547    -1.2526 H       
  41 H41            3.9641    -1.1817    -0.2166 H       
  42 H42            5.4428     3.2909    -0.2145 H       
  43 H43            9.3595     1.6188     0.0389 H       
  44 H44            8.3990    -0.6472     0.0230 H       
  45 H45            5.9605    -0.9519    -0.1034 H       
  46 H46           -0.7038     3.8971     0.5559 H       
  47 H47           -0.9081     4.0208    -1.2080 H       
  48 H48           -2.3135     4.2168    -0.1333 H       
  49 H49           -2.0291    -2.0884     2.3726 H       
  50 H50           -5.2208    -1.9628    -0.4942 H       
  51 H51           -2.0279    -4.5264     2.2955 H       
  52 H52           -5.3120    -7.0069    -0.7242 H       
  53 H53           -3.3731    -6.8991     1.0143 H       
  54 H54           -5.9339    -4.3992    -2.5844 H       
  55 H55           -7.0992    -5.2996    -1.5846 H       
  56 H56           -6.8244    -3.5662    -1.2877 H       
@<TRIPOS>BOND
   1    1    2 1
   2    1    7 am
   3    1    6 1
   4    2    3 1
   5    2   34 1
   6    2   35 1
   7    3    4 1
   8    3   36 1
   9    3   37 1
  10    4    5 1
  11    4   15 am
  12    5    6 1
  13    5   38 1
  14    5   39 1
  15    6   23 1
  16    6   40 1
  17    7    8 1
  18    7   14 2
  19    8    9 2
  20    8   10 1
  21    9   12 1
  22   10   11 2
  23   11   12 1
  24   11   41 1
  25   12   13 1
  26   13   18 ar
  27   13   22 ar
  28   15   16 1
  29   15   17 2
  30   16   26 ar
  31   16   25 ar
  32   18   19 ar
  33   18   42 1
  34   19   20 ar
  35   19   24 1
  36   20   21 ar
  37   20   43 1
  38   21   22 ar
  39   21   44 1
  40   22   45 1
  41   23   46 1
  42   23   47 1
  43   23   48 1
  44   25   29 ar
  45   25   49 1
  46   26   27 ar
  47   26   50 1
  48   27   28 ar
  49   27   30 1
  50   28   29 ar
  51   28   32 1
  52   29   51 1
  53   30   31 1
  54   30   33 1
  55   31   32 2
  56   31   52 1
  57   32   53 1
  58   33   54 1
  59   33   55 1
  60   33   56 1

#	End of record

