#	Name: ASD01440127
#	Creating user name:	WinNT
#	Creation time:	15. 06. 2019 19:21

#	Modifying user name:	WinNT
#	Modification time:	15. 06. 2019 19:21

#	Program:	/corina/corina34_cracker 3.40 0067  02.08.2006

@<TRIPOS>MOLECULE
ASD01440127
  45   47    0    0    0
SMALL
NO_CHARGES


@<TRIPOS>ATOM
   1 C1             0.2353     1.5062     0.1008 C.ar    
   2 C2             0.2041     0.1325     0.1839 C.ar    
   3 C3             1.3906    -0.5887     0.2581 C.ar    
   4 C4             2.6132     0.0735     0.2487 C.ar    
   5 C5             2.6537     1.4470     0.1654 C.ar    
   6 C6             1.4628     2.1763     0.0906 C.ar    
   7 C7             1.5012     3.6480     0.0012 C.2     
   8 O8             0.4715     4.2745    -0.1592 O.2     
   9 C9             2.7907     4.3610     0.1066 C.ar    
  10 O10            1.3553    -1.9426     0.3403 O.3     
  11 C11            2.6108    -2.6211     0.4136 C.3     
  12 C12            2.3745    -4.1071     0.4988 C.2     
  13 N13            3.4213    -4.9524     0.5771 N.am    
  14 O14            1.2424    -4.5422     0.4970 O.2     
  15 C15            3.3988     4.8843    -1.0371 C.ar    
  16 C16            4.6024     5.5486    -0.9315 C.ar    
  17 C17            5.2092     5.6976     0.3039 C.ar    
  18 C18            4.6137     5.1824     1.4410 C.ar    
  19 C19            3.4053     4.5202     1.3515 C.ar    
  20 Br20           2.5886     3.8233     2.9082 Br      
  21 C21            3.2020    -6.3231     0.7556 C.ar    
  22 C22            2.1015    -6.9435     0.1713 C.ar    
  23 C23            1.9267    -8.3066     0.3777 C.ar    
  24 C24            2.8485    -8.9962     1.1531 C.ar    
  25 N25            3.8790    -8.3743     1.6905 N.ar    
  26 C26            4.0825    -7.0841     1.5134 C.ar    
  27 O27            0.8669    -8.9558    -0.1722 O.3     
  28 C28            0.7586   -10.3569     0.0872 C.3     
  29 H29           -0.6866     2.0653     0.0391 H       
  30 H30           -0.7433    -0.3858     0.1919 H       
  31 H31            3.5324    -0.4904     0.3072 H       
  32 H32            3.6037     1.9606     0.1585 H       
  33 H33            3.1974    -2.3970    -0.4774 H       
  34 H34            3.1527    -2.2880     1.2987 H       
  35 H35            4.3267    -4.6109     0.5097 H       
  36 H36            2.9274     4.7685    -2.0018 H       
  37 H37            5.0733     5.9535    -1.8151 H       
  38 H38            6.1523     6.2183     0.3800 H       
  39 H39            5.0929     5.3020     2.4014 H       
  40 H40            1.4010    -6.3797    -0.4269 H       
  41 H41            2.7196   -10.0556     1.3185 H       
  42 H42            4.9416    -6.6122     1.9669 H       
  43 H43           -0.1287   -10.7507    -0.4086 H       
  44 H44            1.6438   -10.8664    -0.2935 H       
  45 H45            0.6780   -10.5223     1.1616 H       
@<TRIPOS>BOND
   1    1    2 ar
   2    1    6 ar
   3    1   29 1
   4    2    3 ar
   5    2   30 1
   6    3    4 ar
   7    3   10 1
   8    4    5 ar
   9    4   31 1
  10    5    6 ar
  11    5   32 1
  12    6    7 1
  13    7    8 2
  14    7    9 1
  15    9   15 ar
  16    9   19 ar
  17   10   11 1
  18   11   12 1
  19   11   33 1
  20   11   34 1
  21   12   13 am
  22   12   14 2
  23   13   21 1
  24   13   35 1
  25   15   16 ar
  26   15   36 1
  27   16   17 ar
  28   16   37 1
  29   17   18 ar
  30   17   38 1
  31   18   19 ar
  32   18   39 1
  33   19   20 1
  34   21   22 ar
  35   21   26 ar
  36   22   23 ar
  37   22   40 1
  38   23   24 ar
  39   23   27 1
  40   24   25 ar
  41   24   41 1
  42   25   26 ar
  43   26   42 1
  44   27   28 1
  45   28   43 1
  46   28   44 1
  47   28   45 1

#	End of record

