#	Name: ASD01911546
#	Creating user name:	WinNT
#	Creation time:	15. 06. 2019 19:58

#	Modifying user name:	WinNT
#	Modification time:	15. 06. 2019 19:58

#	Program:	/corina/corina34_cracker 3.40 0067  02.08.2006

@<TRIPOS>MOLECULE
ASD01911546
  38   40    0    0    0
SMALL
NO_CHARGES


@<TRIPOS>ATOM
   1 C1            -0.0144     1.2130     0.0087 C.2     
   2 O2            -0.0244     0.0713    -0.4132 O.2     
   3 S3             1.3237     3.7550    -0.1827 S.3     
   4 C4             3.0817     3.6514    -0.1522 C.2     
   5 N5             3.4422     2.3966    -0.0446 N.2     
   6 C6             2.4941     1.5051     0.0167 C.2     
   7 C7             1.2196     2.0013    -0.0401 C.2     
   8 C8             3.9776     4.7656    -0.2324 C.1     
   9 C9             4.7121     5.6791    -0.2982 C.1     
  10 C10            5.6080     6.7933    -0.3784 C.ar    
  11 C11            6.9905     6.5872    -0.3441 C.ar    
  12 C12            7.8468     7.6653    -0.4218 C.ar    
  13 C13            7.3410     8.9487    -0.5335 C.ar    
  14 C14            5.9738     9.1608    -0.5676 C.ar    
  15 C15            5.1047     8.0924    -0.4972 C.ar    
  16 N16           -1.1400     1.7538     0.5157 N.am    
  17 C17           -2.4177     1.0326     0.4387 C.3     
  18 C18           -3.0162     0.9382     1.8456 C.3     
  19 C19           -3.1221     2.3420     2.4459 C.3     
  20 C20           -1.7257     2.9584     2.5554 C.3     
  21 C21           -1.1114     3.0733     1.1615 C.3     
  22 O22           -4.3172     0.3515     1.7721 O.3     
  23 H23            2.6993     0.4485     0.1056 H       
  24 H24            7.3867     5.5863    -0.2567 H       
  25 H25            8.9149     7.5078    -0.3951 H       
  26 H26            8.0167     9.7890    -0.5940 H       
  27 H27            5.5865    10.1653    -0.6542 H       
  28 H28            4.0382     8.2591    -0.5288 H       
  29 H29           -3.1032     1.5724    -0.2146 H       
  30 H30           -2.2483     0.0301     0.0456 H       
  31 H31           -2.3735     0.3214     2.4738 H       
  32 H32           -3.7449     2.9652     1.8042 H       
  33 H33           -3.5705     2.2800     3.4374 H       
  34 H34           -1.7994     3.9489     3.0045 H       
  35 H35           -1.0951     2.3227     3.1769 H       
  36 H36           -0.0804     3.4169     1.2452 H       
  37 H37           -1.6882     3.7829     0.5683 H       
  38 H38           -4.3260    -0.5402     1.3982 H       
@<TRIPOS>BOND
   1    1    2 2
   2    1    7 1
   3    1   16 am
   4    3    4 1
   5    3    7 1
   6    4    5 2
   7    4    8 1
   8    5    6 1
   9    6    7 2
  10    6   23 1
  11    8    9 3
  12    9   10 1
  13   10   11 ar
  14   10   15 ar
  15   11   12 ar
  16   11   24 1
  17   12   13 ar
  18   12   25 1
  19   13   14 ar
  20   13   26 1
  21   14   15 ar
  22   14   27 1
  23   15   28 1
  24   16   17 1
  25   16   21 1
  26   17   18 1
  27   17   29 1
  28   17   30 1
  29   18   19 1
  30   18   22 1
  31   18   31 1
  32   19   20 1
  33   19   32 1
  34   19   33 1
  35   20   21 1
  36   20   34 1
  37   20   35 1
  38   21   36 1
  39   21   37 1
  40   22   38 1

#	End of record

