#	Name: ASD03240523
#	Creating user name:	WinNT
#	Creation time:	15. 06. 2019 20:35

#	Modifying user name:	WinNT
#	Modification time:	15. 06. 2019 20:35

#	Program:	/corina/corina34_cracker 3.40 0067  02.08.2006

@<TRIPOS>MOLECULE
ASD03240523
  50   55    0    0    0
SMALL
NO_CHARGES


@<TRIPOS>ATOM
   1 C1             0.0387     1.1879    -0.2290 C.ar    
   2 C2             0.1156    -0.1876    -0.3019 C.ar    
   3 N3             1.2821    -0.8043    -0.2972 N.ar    
   4 C4             2.4265    -0.1385    -0.2220 C.ar    
   5 C5             2.4239     1.2538    -0.1596 C.ar    
   6 C6             1.2107     1.9295    -0.1567 C.ar    
   7 N7             3.6232    -0.8489    -0.1855 N.pl3   
   8 C8             4.4564    -0.7815     0.9281 C.ar    
   9 C9             5.0296     0.4353     1.3142 C.ar    
  10 C10            4.7778     1.6582     0.5225 C.2     
  11 N11            3.6189     1.9857    -0.1177 N.pl3   
  12 C12            4.7208    -1.9278     1.6652 C.ar    
  13 C13            5.5366    -1.8618     2.7787 C.ar    
  14 C14            6.0946    -0.6565     3.1687 C.ar    
  15 C15            5.8463     0.4914     2.4433 C.ar    
  16 N16            5.6542     2.6229     0.3189 N.2     
  17 C17            5.1079     3.5731    -0.4410 C.2     
  18 C18            3.8303     3.2037    -0.7344 C.2     
  19 C19            2.8592     3.9588    -1.5533 C.ar    
  20 C20            2.9037     5.3538    -1.5850 C.ar    
  21 C21            1.8967     3.2802    -2.3030 C.ar    
  22 C22            0.9934     3.9912    -3.0656 C.ar    
  23 C23            1.0401     5.3739    -3.0888 C.ar    
  24 C24            1.9945     6.0526    -2.3519 C.ar    
  25 C25            0.0504     6.1439    -3.9246 C.3     
  26 N26           -1.1480     5.3612    -4.2551 N.3     
  27 C27           -0.2617     7.5456    -3.3743 C.3     
  28 C28           -0.2426     8.0360    -4.8317 C.3     
  29 C29            0.6828     6.8445    -5.1387 C.3     
  30 H30           -0.9214     1.6824    -0.2325 H       
  31 H31           -0.7928    -0.7685    -0.3634 H       
  32 H32            1.1793     3.0075    -0.0991 H       
  33 H33            3.8792    -1.3970    -0.9437 H       
  34 H34            4.2883    -2.8719     1.3685 H       
  35 H35            5.7399    -2.7564     3.3486 H       
  36 H36            6.7264    -0.6141     4.0436 H       
  37 H37            6.2830     1.4305     2.7496 H       
  38 H38            5.5951     4.4799    -0.7676 H       
  39 H39            3.6482     5.8848    -1.0103 H       
  40 H40            1.8596     2.2010    -2.2863 H       
  41 H41            0.2483     3.4675    -3.6460 H       
  42 H42            2.0253     7.1319    -2.3741 H       
  43 H43           -0.8981     4.4604    -4.6349 H       
  44 H44           -1.7475     5.2604    -3.4499 H       
  45 H45           -1.2407     7.6209    -2.9011 H       
  46 H46            0.5383     7.9627    -2.7628 H       
  47 H47           -1.2118     7.9731    -5.3264 H       
  48 H48            0.2368     9.0066    -4.9595 H       
  49 H49            1.7415     7.0694    -5.0097 H       
  50 H50            0.4655     6.3563    -6.0887 H       
@<TRIPOS>BOND
   1    1    2 ar
   2    1    6 ar
   3    1   30 1
   4    2    3 ar
   5    2   31 1
   6    3    4 ar
   7    4    5 ar
   8    4    7 1
   9    5    6 ar
  10    5   11 1
  11    6   32 1
  12    7    8 1
  13    7   33 1
  14    8    9 ar
  15    8   12 ar
  16    9   10 1
  17    9   15 ar
  18   10   11 1
  19   10   16 2
  20   11   18 1
  21   12   13 ar
  22   12   34 1
  23   13   14 ar
  24   13   35 1
  25   14   15 ar
  26   14   36 1
  27   15   37 1
  28   16   17 1
  29   17   18 2
  30   17   38 1
  31   18   19 1
  32   19   20 ar
  33   19   21 ar
  34   20   24 ar
  35   20   39 1
  36   21   22 ar
  37   21   40 1
  38   22   23 ar
  39   22   41 1
  40   23   24 ar
  41   23   25 1
  42   24   42 1
  43   25   26 1
  44   25   27 1
  45   25   29 1
  46   26   43 1
  47   26   44 1
  48   27   28 1
  49   27   45 1
  50   27   46 1
  51   28   29 1
  52   28   47 1
  53   28   48 1
  54   29   49 1
  55   29   50 1

#	End of record

