#	Name: ASD01840361
#	Creating user name:	WinNT
#	Creation time:	15. 06. 2019 19:37

#	Modifying user name:	WinNT
#	Modification time:	15. 06. 2019 19:37

#	Program:	/corina/corina34_cracker 3.40 0067  02.08.2006

@<TRIPOS>MOLECULE
ASD01840361
  45   47    0    0    0
SMALL
NO_CHARGES


@<TRIPOS>ATOM
   1 C1             0.2610     1.7549    -0.9980 C.ar    
   2 C2             0.3840     0.5320    -1.6193 C.ar    
   3 N3             1.4992    -0.1678    -1.4965 N.ar    
   4 N4             2.5001     0.2427    -0.8112 N.ar    
   5 C5             1.3549     2.2266    -0.2363 C.ar    
   6 C6             1.5104     3.4570     0.5172 C.2     
   7 C7             2.4929     1.4123    -0.1669 C.ar    
   8 S8             3.7251     2.1827     0.8223 S.3     
   9 C9             2.7119     3.5785     1.1344 C.2     
  10 C10           -1.0000     2.5692    -1.1311 C.3     
  11 C11           -0.7564    -0.0106    -2.4416 C.3     
  12 N12            0.5177     4.4241     0.5986 N.pl3   
  13 C13            3.1098     4.7235     1.9521 C.2     
  14 O14            2.3396     5.6522     2.1150 O.2     
  15 N15            4.3293     4.7508     2.5253 N.am    
  16 C16            4.7281     5.8981     3.3445 C.3     
  17 C17            6.1259     5.6823     3.8645 C.ar    
  18 C18            7.2114     6.1234     3.1300 C.ar    
  19 C19            8.4936     5.9265     3.6042 C.ar    
  20 C20            8.6921     5.2859     4.8189 C.ar    
  21 C21            7.6016     4.8448     5.5541 C.ar    
  22 C22            6.3208     5.0489     5.0778 C.ar    
  23 C23            7.8135     4.1484     6.8736 C.3     
  24 F24            6.5742     3.8008     7.4217 F       
  25 F25            8.5757     2.9924     6.6736 F       
  26 F26            8.4874     5.0054     7.7503 F       
  27 O27            9.9527     5.0906     5.2875 O.3     
  28 C28           11.0276     5.5705     4.4773 C.3     
  29 H29           -1.6441     2.3847    -0.2714 H       
  30 H30           -0.7458     3.6283    -1.1740 H       
  31 H31           -1.5222     2.2837    -2.0443 H       
  32 H32           -0.6496     0.3211    -3.4744 H       
  33 H33           -0.7434    -1.0999    -2.4066 H       
  34 H34           -1.7010     0.3547    -2.0385 H       
  35 H35           -0.4030     4.1919     0.4002 H       
  36 H36            0.7448     5.3320     0.8537 H       
  37 H37            4.9429     4.0109     2.3955 H       
  38 H38            4.7015     6.8038     2.7387 H       
  39 H39            4.0402     6.0019     4.1837 H       
  40 H40            7.0564     6.6219     2.1846 H       
  41 H41            9.3411     6.2705     3.0298 H       
  42 H42            5.4712     4.7093     5.6517 H       
  43 H43           10.9971     5.0791     3.5049 H       
  44 H44           10.9286     6.6477     4.3433 H       
  45 H45           11.9769     5.3509     4.9658 H       
@<TRIPOS>BOND
   1    1    2 ar
   2    1    5 ar
   3    1   10 1
   4    2   11 1
   5    2    3 ar
   6    3    4 ar
   7    4    7 ar
   8    5    7 ar
   9    5    6 1
  10    6    9 2
  11    6   12 1
  12    7    8 1
  13    8    9 1
  14    9   13 1
  15   10   29 1
  16   10   30 1
  17   10   31 1
  18   11   32 1
  19   11   33 1
  20   11   34 1
  21   12   35 1
  22   12   36 1
  23   13   14 2
  24   13   15 am
  25   15   16 1
  26   15   37 1
  27   16   17 1
  28   16   38 1
  29   16   39 1
  30   17   18 ar
  31   17   22 ar
  32   18   19 ar
  33   18   40 1
  34   19   20 ar
  35   19   41 1
  36   20   21 ar
  37   20   27 1
  38   21   22 ar
  39   21   23 1
  40   22   42 1
  41   23   24 1
  42   23   25 1
  43   23   26 1
  44   27   28 1
  45   28   43 1
  46   28   44 1
  47   28   45 1

#	End of record

