#	Name: ASD03081341
#	Creating user name:	WinNT
#	Creation time:	15. 06. 2019 20:27

#	Modifying user name:	WinNT
#	Modification time:	15. 06. 2019 20:27

#	Program:	/corina/corina34_cracker 3.40 0067  02.08.2006

@<TRIPOS>MOLECULE
ASD03081341
  32   35    0    0    0
SMALL
NO_CHARGES


@<TRIPOS>ATOM
   1 O1            -0.0162     1.3450     0.0094 O.3     
   2 C2             0.0021    -0.0041     0.0020 C.2     
   3 N3             1.2625    -0.3803    -0.0120 N.2     
   4 N4             2.0187     0.6606    -0.0137 N.2     
   5 C5             1.2730     1.7422    -0.0007 C.2     
   6 C6             0.8546     4.2028     0.0149 C.ar    
   7 C7             1.7575     3.1377     0.0014 C.ar    
   8 C8             3.1299     3.4150    -0.0097 C.ar    
   9 C9             3.5314     4.7393    -0.0067 C.ar    
  10 C10            2.5737     5.7372     0.0070 C.ar    
  11 N11            1.2867     5.4465     0.0168 N.ar    
  12 C12           -1.1734    -0.8924     0.0092 C.ar    
  13 C13           -2.4582    -0.3649     0.0251 C.ar    
  14 C14           -3.5655    -1.2010     0.0319 C.ar    
  15 C15           -3.4364    -2.5685     0.0238 C.ar    
  16 C16           -2.1621    -3.1655     0.0082 C.ar    
  17 C17           -2.0104    -4.5623     0.0007 C.ar    
  18 C18           -0.7613    -5.1040    -0.0141 C.ar    
  19 C19            0.3716    -4.2937    -0.0219 C.ar    
  20 C20            0.2609    -2.9352    -0.0145 C.ar    
  21 C21           -1.0087    -2.3441    -0.0063 C.ar    
  22 F22           -4.5410    -3.3463     0.0313 F       
  23 H23           -0.2071     4.0047     0.0191 H       
  24 H24            3.8564     2.6159    -0.0199 H       
  25 H25            4.5816     4.9910    -0.0146 H       
  26 H26            2.8845     6.7715     0.0094 H       
  27 H27           -2.5967     0.7061     0.0326 H       
  28 H28           -4.5537    -0.7656     0.0443 H       
  29 H29           -2.8799    -5.2029     0.0070 H       
  30 H30           -0.6472    -6.1779    -0.0194 H       
  31 H31            1.3513    -4.7481    -0.0336 H       
  32 H32            1.1472    -2.3181    -0.0203 H       
@<TRIPOS>BOND
   1    1    2 1
   2    1    5 1
   3    2    3 2
   4    2   12 1
   5    3    4 1
   6    4    5 2
   7    5    7 1
   8    6    7 ar
   9    6   11 ar
  10    6   23 1
  11    7    8 ar
  12    8    9 ar
  13    8   24 1
  14    9   10 ar
  15    9   25 1
  16   10   11 ar
  17   10   26 1
  18   12   13 ar
  19   12   21 ar
  20   13   14 ar
  21   13   27 1
  22   14   15 ar
  23   14   28 1
  24   15   16 ar
  25   15   22 1
  26   16   17 ar
  27   16   21 ar
  28   17   18 ar
  29   17   29 1
  30   18   19 ar
  31   18   30 1
  32   19   20 ar
  33   19   31 1
  34   20   21 ar
  35   20   32 1

#	End of record

