#	Name: ASD07030078
#	Creating user name:	WinNT
#	Creation time:	15. 06. 2019 21:08

#	Modifying user name:	WinNT
#	Modification time:	15. 06. 2019 21:08

#	Program:	/corina/corina34_cracker 3.40 0067  02.08.2006

@<TRIPOS>MOLECULE
ASD07030078
  41   42    0    0    0
SMALL
NO_CHARGES


@<TRIPOS>ATOM
   1 C1             0.3569     1.4011     0.0028 C.3     
   2 C2             0.7671    -0.0678    -0.1190 C.3     
   3 N3             1.5598     2.2423     0.0603 N.3     
   4 N4            -0.4359    -0.9090    -0.1765 N.3     
   5 C5            -0.0800    -2.3293    -0.2939 C.3     
   6 C6            -1.0972    -3.3563     0.2075 C.3     
   7 C7            -0.8699    -3.1752    -1.2947 C.3     
   8 C8            -0.5615    -4.6119     0.8458 C.ar    
   9 C9            -0.8884    -4.9158     2.1541 C.ar    
  10 C10           -0.3970    -6.0675     2.7397 C.ar    
  11 C11            0.4210    -6.9156     2.0168 C.ar    
  12 C12            0.7472    -6.6122     0.7082 C.ar    
  13 C13            0.2522    -5.4627     0.1213 C.ar    
  14 C14            2.2998     2.1901    -1.2076 C.3     
  15 C15            3.7163     2.7275    -0.9940 C.3     
  16 C16            1.2179     3.6266     0.4137 C.3     
  17 C17            0.9257     3.7129     1.9130 C.3     
  18 H18           -0.2431     1.6838    -0.8622 H       
  19 H19           -0.2280     1.5409     0.9120 H       
  20 H20            1.3519    -0.2075    -1.0281 H       
  21 H21            1.3670    -0.3504     0.7460 H       
  22 H22           -1.0273    -0.7495     0.6254 H       
  23 H23            0.9767    -2.5619    -0.1621 H       
  24 H24           -2.0306    -2.9781     0.6245 H       
  25 H25           -1.6537    -2.6777    -1.8659 H       
  26 H26           -0.3329    -3.9641    -1.8212 H       
  27 H27           -1.5275    -4.2533     2.7189 H       
  28 H28           -0.6518    -6.3046     3.7621 H       
  29 H29            0.8056    -7.8151     2.4746 H       
  30 H30            1.3866    -7.2746     0.1436 H       
  31 H31            0.5041    -5.2275    -0.9023 H       
  32 H32            2.3513     1.1586    -1.5560 H       
  33 H33            1.7883     2.8000    -1.9522 H       
  34 H34            4.1805     2.2057    -0.1571 H       
  35 H35            4.3064     2.5650    -1.8959 H       
  36 H36            3.6711     3.7947    -0.7767 H       
  37 H37            2.0540     4.2814     0.1682 H       
  38 H38            0.3362     3.9374    -0.1468 H       
  39 H39            1.8098     3.4091     2.4736 H       
  40 H40            0.6647     4.7385     2.1739 H       
  41 H41            0.0944     3.0525     2.1598 H       
@<TRIPOS>BOND
   1    1    2 1
   2    1    3 1
   3    1   18 1
   4    1   19 1
   5    2    4 1
   6    2   20 1
   7    2   21 1
   8    3   14 1
   9    3   16 1
  10    4    5 1
  11    4   22 1
  12    5    6 1
  13    5    7 1
  14    5   23 1
  15    6    7 1
  16    6    8 1
  17    6   24 1
  18    7   25 1
  19    7   26 1
  20    8    9 ar
  21    8   13 ar
  22    9   10 ar
  23    9   27 1
  24   10   11 ar
  25   10   28 1
  26   11   12 ar
  27   11   29 1
  28   12   13 ar
  29   12   30 1
  30   13   31 1
  31   14   15 1
  32   14   32 1
  33   14   33 1
  34   15   34 1
  35   15   35 1
  36   15   36 1
  37   16   17 1
  38   16   37 1
  39   16   38 1
  40   17   39 1
  41   17   40 1
  42   17   41 1

#	End of record

