#	Name: ASD03092261
#	Creating user name:	WinNT
#	Creation time:	15. 06. 2019 20:32

#	Modifying user name:	WinNT
#	Modification time:	15. 06. 2019 20:32

#	Program:	/corina/corina34_cracker 3.40 0067  02.08.2006

@<TRIPOS>MOLECULE
ASD03092261
  53   55    0    0    0
SMALL
NO_CHARGES


@<TRIPOS>ATOM
   1 C1             0.1275    -0.3091     1.1322 C.3     
   2 O2            -0.5809    -0.4702    -0.0983 O.3     
   3 C3             0.1073    -1.0063    -1.1410 C.ar    
   4 C4             1.4352    -1.3744    -0.9794 C.ar    
   5 C5             2.1346    -1.9189    -2.0379 C.ar    
   6 C6             1.5087    -2.0984    -3.2643 C.ar    
   7 C7             0.1797    -1.7302    -3.4253 C.ar    
   8 C8            -0.5202    -1.1903    -2.3647 C.ar    
   9 N9             2.2188    -2.6510    -4.3400 N.pl3   
  10 N10            2.2187    -2.1976    -5.6692 N.2     
  11 C11            3.0133    -2.9969    -6.3421 C.2     
  12 N12            3.2981    -2.9003    -7.7053 N.pl3   
  13 C13            2.6301    -1.9582    -8.4943 C.ar    
  14 C14            1.3413    -1.5616    -8.1622 C.ar    
  15 C15            0.6834    -0.6311    -8.9429 C.ar    
  16 C16            1.3080    -0.0939   -10.0556 C.ar    
  17 F17            0.6628     0.8164   -10.8175 F       
  18 C18            2.5932    -0.4879   -10.3887 C.ar    
  19 C19            3.2569    -1.4136    -9.6079 C.ar    
  20 C20            3.2701     0.0982   -11.6008 C.3     
  21 F21            4.5509    -0.4495   -11.7302 F       
  22 F22            2.5188    -0.1976   -12.7433 F       
  23 F23            3.3691     1.4860   -11.4542 F       
  24 N24            3.5053    -3.9185    -5.5080 N.2     
  25 C25            3.0398    -3.7174    -4.3012 C.2     
  26 C26            3.3641    -4.5392    -3.0804 C.3     
  27 C27            2.4406    -5.7579    -3.0259 C.3     
  28 C28            2.6848    -6.5164    -1.7467 C.2     
  29 O29            3.5156    -6.1211    -0.9565 O.2     
  30 N30            1.9799    -7.6339    -1.4809 N.am    
  31 C31            2.2172    -8.3712    -0.2375 C.3     
  32 C32            0.9763    -8.1113    -2.4355 C.3     
  33 H33            0.4764    -1.2813     1.4805 H       
  34 H34            0.9821     0.3491     0.9761 H       
  35 H35           -0.5358     0.1276     1.8788 H       
  36 H36            1.9219    -1.2348    -0.0254 H       
  37 H37            3.1685    -2.2048    -1.9122 H       
  38 H38           -0.3075    -1.8693    -4.3791 H       
  39 H39           -1.5551    -0.9076    -2.4886 H       
  40 H40            3.9594    -3.4864    -8.1054 H       
  41 H41            0.8536    -1.9806    -7.2945 H       
  42 H42           -0.3190    -0.3226    -8.6852 H       
  43 H43            4.2609    -1.7170    -9.8653 H       
  44 H44            4.4011    -4.8711    -3.1308 H       
  45 H45            3.2195    -3.9335    -2.1857 H       
  46 H46            1.4021    -5.4286    -3.0605 H       
  47 H47            2.6447    -6.4067    -3.8776 H       
  48 H48            1.5587    -7.9894     0.5427 H       
  49 H49            2.0140    -9.4300    -0.3984 H       
  50 H50            3.2555    -8.2429     0.0685 H       
  51 H51            0.9416    -7.4392    -3.2928 H       
  52 H52            1.2416    -9.1141    -2.7705 H       
  53 H53           -0.0010    -8.1360    -1.9533 H       
@<TRIPOS>BOND
   1    1    2 1
   2    1   33 1
   3    1   34 1
   4    1   35 1
   5    2    3 1
   6    3    8 ar
   7    3    4 ar
   8    4    5 ar
   9    4   36 1
  10    5    6 ar
  11    5   37 1
  12    6    7 ar
  13    6    9 1
  14    7    8 ar
  15    7   38 1
  16    8   39 1
  17    9   25 1
  18    9   10 1
  19   10   11 2
  20   11   12 1
  21   11   24 1
  22   12   13 1
  23   12   40 1
  24   13   19 ar
  25   13   14 ar
  26   14   15 ar
  27   14   41 1
  28   15   16 ar
  29   15   42 1
  30   16   17 1
  31   16   18 ar
  32   18   19 ar
  33   18   20 1
  34   19   43 1
  35   20   21 1
  36   20   22 1
  37   20   23 1
  38   24   25 2
  39   25   26 1
  40   26   27 1
  41   26   44 1
  42   26   45 1
  43   27   28 1
  44   27   46 1
  45   27   47 1
  46   28   29 2
  47   28   30 am
  48   30   31 1
  49   30   32 1
  50   31   48 1
  51   31   49 1
  52   31   50 1
  53   32   51 1
  54   32   52 1
  55   32   53 1

#	End of record

