#	Name: ASD03092752
#	Creating user name:	WinNT
#	Creation time:	15. 06. 2019 20:33

#	Modifying user name:	WinNT
#	Modification time:	15. 06. 2019 20:33

#	Program:	/corina/corina34_cracker 3.40 0067  02.08.2006

@<TRIPOS>MOLECULE
ASD03092752
  40   42    0    0    0
SMALL
NO_CHARGES


@<TRIPOS>ATOM
   1 H1             0.0021    -0.0041     0.0020 H       
   2 C2            -0.0127     1.0858     0.0080 C.3     
   3 H3             1.0099     1.4631     0.0003 H       
   4 N4            -0.7213     1.5711    -1.1789 N.pl3   
   5 C5            -0.2555     1.2497    -2.4434 C.ar    
   6 C6             0.8848     0.4592    -2.5995 C.ar    
   7 C7             1.3091     0.1665    -3.8809 C.ar    
   8 N8             0.6259     0.6416    -4.9126 N.ar    
   9 C9            -0.4470     1.3853    -4.7320 C.ar    
  10 N10           -0.8904     1.6845    -3.5280 N.ar    
  11 C11            2.5344    -0.6822    -4.1033 C.3     
  12 C12            2.7748    -0.8471    -5.6053 C.3     
  13 C13            3.7477    -0.0037    -3.4642 C.3     
  14 F14            2.3427    -1.9396    -3.5209 F       
  15 C15           -0.7181     1.5718     1.2479 C.ar    
  16 C16           -0.3716     2.7866     1.8188 C.ar    
  17 N17           -0.9705     3.2352     2.9015 N.ar    
  18 C18           -1.9346     2.5482     3.4994 C.ar    
  19 N19           -2.7048     2.7823     4.6132 N.pl3   
  20 H20           -2.6423     3.5689     5.1774 H       
  21 C21           -3.5734     1.7423     4.8096 C.2     
  22 C22           -3.4025     0.8167     3.8526 C.2     
  23 C23           -2.3386     1.3056     2.9740 C.ar    
  24 C24           -1.7203     0.8128     1.8228 C.ar    
  25 C25           -4.5727     1.6501     5.9339 C.3     
  26 F26           -4.4736     2.7890     6.7403 F       
  27 F27           -5.8645     1.5650     5.4037 F       
  28 F28           -4.3075     0.5108     6.7013 F       
  29 H29           -1.5165     2.1175    -1.0793 H       
  30 H30            1.4218     0.0862    -1.7399 H       
  31 H31           -0.9801     1.7561    -5.5950 H       
  32 H32            2.9241     0.1326    -6.0591 H       
  33 H33            3.6610    -1.4610    -5.7662 H       
  34 H34            1.9104    -1.3305    -6.0607 H       
  35 H35            3.5764     0.1138    -2.3941 H       
  36 H36            4.6339    -0.6176    -3.6250 H       
  37 H37            3.8971     0.9760    -3.9179 H       
  38 H38            0.4088     3.3789     1.3643 H       
  39 H39           -3.9457    -0.1111     3.7506 H       
  40 H40           -2.0138    -0.1350     1.3965 H       
@<TRIPOS>BOND
   1    1    2 1
   2    2    3 1
   3    2    4 1
   4    2   15 1
   5    4    5 1
   6    4   29 1
   7    5   10 ar
   8    5    6 ar
   9    6    7 ar
  10    6   30 1
  11    7    8 ar
  12    7   11 1
  13    8    9 ar
  14    9   10 ar
  15    9   31 1
  16   11   12 1
  17   11   13 1
  18   11   14 1
  19   12   32 1
  20   12   33 1
  21   12   34 1
  22   13   35 1
  23   13   36 1
  24   13   37 1
  25   15   24 ar
  26   15   16 ar
  27   16   17 ar
  28   16   38 1
  29   17   18 ar
  30   18   23 ar
  31   18   19 1
  32   19   20 1
  33   19   21 1
  34   21   22 2
  35   21   25 1
  36   22   23 1
  37   22   39 1
  38   23   24 ar
  39   24   40 1
  40   25   26 1
  41   25   27 1
  42   25   28 1

#	End of record

