#	Name: ASD03331088
#	Creating user name:	WinNT
#	Creation time:	15. 06. 2019 20:38

#	Modifying user name:	WinNT
#	Modification time:	15. 06. 2019 20:38

#	Program:	/corina/corina34_cracker 3.40 0067  02.08.2006

@<TRIPOS>MOLECULE
ASD03331088
  68   71    0    0    0
SMALL
NO_CHARGES


@<TRIPOS>ATOM
   1 N1            -0.1143     1.2730     0.4299 N.pl3   
   2 C2            -0.0294    -0.0795     0.3152 C.2     
   3 C3             1.2462    -0.8806     0.2991 C.3     
   4 N4             2.1117    -0.4312     1.4007 N.3     
   5 C5             2.9739     0.6749     0.9804 C.3     
   6 C6             2.2645     1.5639    -0.0369 C.3     
   7 C7             1.0188     2.1871     0.5988 C.3     
   8 C8            -1.4363     1.6060     0.3703 C.2     
   9 N9            -2.1401     0.5054     0.2426 N.2     
  10 C10           -1.3012    -0.5535     0.2083 C.2     
  11 C11           -1.6929    -1.9680     0.0778 C.2     
  12 O12           -0.8408    -2.8357     0.0584 O.2     
  13 N13           -2.9953    -2.3004    -0.0199 N.am    
  14 C14            2.9069    -1.5456     1.9335 C.3     
  15 C15           -4.7244    -3.7960    -0.8339 C.2     
  16 C16           -3.3847    -3.7067    -0.1496 C.3     
  17 C17           -3.4786    -4.3401     1.2400 C.3     
  18 C18           -4.0174    -5.7666     1.1149 C.3     
  19 O19           -5.5733    -2.9575    -0.6168 O.2     
  20 C20           -2.0893    -4.3739     1.8800 C.3     
  21 C21           -4.4231    -3.5131     2.1147 C.3     
  22 N22           -4.9792    -4.8076    -1.6872 N.am    
  23 C23           -6.2718    -5.0789    -2.3331 C.3     
  24 C24           -6.0952    -6.3448    -3.1979 C.3     
  25 C25           -4.8702    -7.0412    -2.5484 C.3     
  26 C26           -4.0062    -5.8218    -2.1325 C.3     
  27 O27           -5.8171    -5.9951    -4.5552 O.3     
  28 C28           -1.9845     2.9776     0.4387 C.ar    
  29 C29           -2.9539     3.3921    -0.4789 C.ar    
  30 C30           -3.4626     4.6748    -0.4096 C.ar    
  31 C31           -3.0130     5.5487     0.5666 C.ar    
  32 C32           -2.0508     5.1419     1.4789 C.ar    
  33 C33           -1.5401     3.8609     1.4230 C.ar    
  34 F34           -3.5132     6.8020     0.6299 F       
  35 F35           -3.3923     2.5405    -1.4317 F       
  36 Cl36          -1.4924     6.2444     2.6981 Cl      
  37 H37            1.0141    -1.9379     0.4261 H       
  38 H38            1.7586    -0.7306    -0.6512 H       
  39 H39            3.2416     1.2716     1.8524 H       
  40 H40            3.8814     0.2709     0.5317 H       
  41 H41            2.9407     2.3553    -0.3604 H       
  42 H42            1.9704     0.9650    -0.8988 H       
  43 H43            0.7970     3.1364     0.1112 H       
  44 H44            1.1967     2.3546     1.6611 H       
  45 H45           -3.6749    -1.6084    -0.0045 H       
  46 H46            3.4810    -2.0007     1.1264 H       
  47 H47            3.5881    -1.1727     2.6984 H       
  48 H48            2.2418    -2.2901     2.3710 H       
  49 H49           -2.6386    -4.2373    -0.7410 H       
  50 H50           -3.3039    -6.3773     0.5616 H       
  51 H51           -4.1625    -6.1887     2.1093 H       
  52 H52           -4.9696    -5.7502     0.5847 H       
  53 H53           -1.7055    -3.3577     1.9691 H       
  54 H54           -2.1562    -4.8252     2.8699 H       
  55 H55           -1.4165    -4.9631     1.2569 H       
  56 H56           -5.4128    -3.4890     1.6587 H       
  57 H57           -4.4900    -3.9643     3.1046 H       
  58 H58           -4.0392    -2.4968     2.2038 H       
  59 H59           -7.0360    -5.2513    -1.5752 H       
  60 H60           -6.5554    -4.2360    -2.9634 H       
  61 H61           -6.9782    -6.9807    -3.1355 H       
  62 H62           -5.1692    -7.6271    -1.6792 H       
  63 H63           -4.3437    -7.6617    -3.2735 H       
  64 H64           -3.4345    -5.4511    -2.9832 H       
  65 H65           -3.3385    -6.0918    -1.3143 H       
  66 H66           -5.6975    -6.7554    -5.1407 H       
  67 H67           -4.2118     4.9967    -1.1178 H       
  68 H68           -0.7944     3.5442     2.1372 H       
@<TRIPOS>BOND
   1    1    2 1
   2    1    7 1
   3    1    8 1
   4    2    3 1
   5    2   10 2
   6    3    4 1
   7    3   37 1
   8    3   38 1
   9    4    5 1
  10    4   14 1
  11    5    6 1
  12    5   39 1
  13    5   40 1
  14    6    7 1
  15    6   41 1
  16    6   42 1
  17    7   43 1
  18    7   44 1
  19    8    9 2
  20    8   28 1
  21    9   10 1
  22   10   11 1
  23   11   12 2
  24   11   13 am
  25   13   16 1
  26   13   45 1
  27   14   46 1
  28   14   47 1
  29   14   48 1
  30   15   19 2
  31   15   22 am
  32   15   16 1
  33   16   17 1
  34   16   49 1
  35   17   18 1
  36   17   20 1
  37   17   21 1
  38   18   50 1
  39   18   51 1
  40   18   52 1
  41   20   53 1
  42   20   54 1
  43   20   55 1
  44   21   56 1
  45   21   57 1
  46   21   58 1
  47   22   23 1
  48   22   26 1
  49   23   24 1
  50   23   59 1
  51   23   60 1
  52   24   25 1
  53   24   27 1
  54   24   61 1
  55   25   26 1
  56   25   62 1
  57   25   63 1
  58   26   64 1
  59   26   65 1
  60   27   66 1
  61   28   29 ar
  62   28   33 ar
  63   29   30 ar
  64   29   35 1
  65   30   31 ar
  66   30   67 1
  67   31   32 ar
  68   31   34 1
  69   32   33 ar
  70   32   36 1
  71   33   68 1

#	End of record

