#	Name: ASD01820004
#	Creating user name:	WinNT
#	Creation time:	15. 06. 2019 19:36

#	Modifying user name:	WinNT
#	Modification time:	15. 06. 2019 19:36

#	Program:	/corina/corina34_cracker 3.40 0067  02.08.2006

@<TRIPOS>MOLECULE
ASD01820004
 109  113    0    0    0
SMALL
NO_CHARGES


@<TRIPOS>ATOM
   1 C1             2.3580     4.6045     0.1969 C.ar    
   2 C2             3.0405     5.3225     1.1610 C.ar    
   3 C3             2.8511     5.0355     2.4999 C.ar    
   4 C4             1.9788     4.0308     2.8747 C.ar    
   5 C5             1.2955     3.3134     1.9107 C.ar    
   6 C6             1.4860     3.5994     0.5717 C.ar    
   7 C7             0.7408     2.8177    -0.4792 C.3     
   8 C8             1.0211     1.3473    -0.3046 C.2     
   9 N9             0.4513     0.4496    -1.1328 N.am    
  10 O10            1.7596     0.9718     0.5812 O.2     
  11 C11           -0.7611     3.0712    -0.3342 C.3     
  12 C12           -1.5384     2.4430    -1.5137 C.3     
  13 C13           -2.6343     3.4666    -1.8637 C.3     
  14 N14           -2.4978     4.5908    -0.9125 N.3     
  15 C15           -1.0783     4.5812    -0.4753 C.3     
  16 C16            1.1945     3.2565    -1.8477 C.ar    
  17 C17            2.4922     3.0129    -2.2567 C.ar    
  18 C18            2.9084     3.4155    -3.5119 C.ar    
  19 C19            2.0267     4.0613    -4.3583 C.ar    
  20 C20            0.7286     4.3041    -3.9496 C.ar    
  21 C21            0.3112     3.8977    -2.6960 C.ar    
  22 C22           -2.8427     5.8671    -1.5529 C.3     
  23 C23           -4.3477     5.9109    -1.8249 C.3     
  24 C24           -4.7069     7.2402    -2.4919 C.3     
  25 C25           -6.2119     7.2840    -2.7640 C.3     
  26 C26           -6.5712     8.6132    -3.4310 C.3     
  27 C27           -8.0762     8.6570    -3.7030 C.3     
  28 C28           -8.4354     9.9863    -4.3700 C.3     
  29 N29           -9.8804    10.0283    -4.6312 N.3     
  30 C30          -10.6420    10.0505    -3.3752 C.3     
  31 C31          -10.2290    11.1765    -5.4785 C.3     
  32 C32           -9.6007    12.4480    -4.9013 C.3     
  33 C33           -9.9163    13.6299    -5.8208 C.3     
  34 N34           -9.3820    13.3641    -7.1626 N.3     
  35 C35          -10.0055    12.1744    -7.7563 C.3     
  36 C36           -9.6926    10.9491    -6.8945 C.3     
  37 C37           -9.5444    14.5345    -8.0353 C.3     
  38 C38           -8.7744    14.3194    -9.3127 C.ar    
  39 C39           -9.3873    13.7146   -10.3993 C.ar    
  40 C40           -8.6761    13.5176   -11.5745 C.ar    
  41 C41           -7.3583    13.9235   -11.6623 C.ar    
  42 C42           -6.7452    14.5264   -10.5807 C.ar    
  43 C43           -7.4538    14.7309    -9.4051 C.ar    
  44 O44           -6.8504    15.3240    -8.3417 O.3     
  45 O45          -10.6833    13.3148   -10.3135 O.3     
  46 C46           -5.4845    15.7115    -8.5039 C.3     
  47 C47          -11.2502    12.6990   -11.4716 C.3     
  48 C48          -12.1332     9.8948    -3.6801 C.3     
  49 C49          -12.9344    10.0156    -2.3823 C.3     
  50 H50            2.5026     4.8317    -0.8489 H       
  51 H51            3.7221     6.1074     0.8682 H       
  52 H52            3.3849     5.5959     3.2531 H       
  53 H53            1.8313     3.8061     3.9208 H       
  54 H54            0.6142     2.5282     2.2035 H       
  55 H55           -0.0842     0.7531    -1.8825 H       
  56 H56            0.5767    -0.4999    -0.9792 H       
  57 H57           -1.1259     2.6849     0.6175 H       
  58 H58           -0.8757     2.2919    -2.3658 H       
  59 H59           -1.9871     1.4972    -1.2100 H       
  60 H60           -2.4959     3.8245    -2.8840 H       
  61 H61           -3.6177     3.0083    -1.7583 H       
  62 H62           -0.9675     5.0887     0.4830 H       
  63 H63           -0.4400     5.0395    -1.2306 H       
  64 H64            3.1811     2.5083    -1.5955 H       
  65 H65            3.9225     3.2258    -3.8312 H       
  66 H66            2.3520     4.3765    -5.3387 H       
  67 H67            0.0398     4.8090    -4.6107 H       
  68 H68           -0.7029     4.0874    -2.3767 H       
  69 H69           -2.5686     6.6904    -0.8932 H       
  70 H70           -2.3006     5.9596    -2.4940 H       
  71 H71           -4.6218     5.0876    -2.4846 H       
  72 H72           -4.8899     5.8184    -0.8839 H       
  73 H73           -4.4329     8.0635    -1.8323 H       
  74 H74           -4.1648     7.3327    -3.4330 H       
  75 H75           -6.4860     6.4607    -3.4236 H       
  76 H76           -6.7541     7.1914    -1.8229 H       
  77 H77           -6.2971     9.4365    -2.7713 H       
  78 H78           -6.0290     8.7057    -4.3720 H       
  79 H79           -8.3503     7.8337    -4.3627 H       
  80 H80           -8.6183     8.5645    -2.7619 H       
  81 H81           -8.1613    10.8096    -3.7103 H       
  82 H82           -7.8933    10.0788    -5.3111 H       
  83 H83          -10.3140     9.2300    -2.7369 H       
  84 H84          -10.4726    10.9983    -2.8643 H       
  85 H85          -11.3127    11.2887    -5.5122 H       
  86 H86          -10.0110    12.6387    -3.9096 H       
  87 H87           -8.5206    12.3203    -4.8304 H       
  88 H88          -10.9962    13.7656    -5.8802 H       
  89 H89           -9.4583    14.5342    -5.4201 H       
  90 H90          -11.0849    12.3170    -7.8066 H       
  91 H91           -9.6122    12.0216    -8.7613 H       
  92 H92           -8.6138    10.7978    -6.8550 H       
  93 H93          -10.1684    10.0689    -7.3270 H       
  94 H94          -10.6008    14.6716    -8.2664 H       
  95 H95           -9.1655    15.4216    -7.5277 H       
  96 H96           -9.1530    13.0462   -12.4212 H       
  97 H97           -6.8063    13.7689   -12.5776 H       
  98 H98           -5.7149    14.8425   -10.6515 H       
  99 H99           -5.4045    16.4268    -9.3224 H       
 100 H100          -5.1255    16.1714    -7.5831 H       
 101 H101          -4.8816    14.8320    -8.7298 H       
 102 H102         -12.2866    12.4287   -11.2689 H       
 103 H103         -11.2137    13.3963   -12.3086 H       
 104 H104         -10.6830    11.8022   -11.7208 H       
 105 H105         -12.4455    10.6752    -4.3740 H       
 106 H106         -12.3123     8.9174    -4.1281 H       
 107 H107         -12.6220     9.2352    -1.6885 H       
 108 H108         -12.7553    10.9930    -1.9344 H       
 109 H109         -13.9968     9.9047    -2.5996 H       
@<TRIPOS>BOND
   1    1    2 ar
   2    1    6 ar
   3    1   50 1
   4    2    3 ar
   5    2   51 1
   6    3    4 ar
   7    3   52 1
   8    4    5 ar
   9    4   53 1
  10    5    6 ar
  11    5   54 1
  12    6    7 1
  13    7    8 1
  14    7   16 1
  15    7   11 1
  16    8    9 am
  17    8   10 2
  18    9   55 1
  19    9   56 1
  20   11   12 1
  21   11   15 1
  22   11   57 1
  23   12   13 1
  24   12   58 1
  25   12   59 1
  26   13   14 1
  27   13   60 1
  28   13   61 1
  29   14   15 1
  30   14   22 1
  31   15   62 1
  32   15   63 1
  33   16   17 ar
  34   16   21 ar
  35   17   18 ar
  36   17   64 1
  37   18   19 ar
  38   18   65 1
  39   19   20 ar
  40   19   66 1
  41   20   21 ar
  42   20   67 1
  43   21   68 1
  44   22   23 1
  45   22   69 1
  46   22   70 1
  47   23   24 1
  48   23   71 1
  49   23   72 1
  50   24   25 1
  51   24   73 1
  52   24   74 1
  53   25   26 1
  54   25   75 1
  55   25   76 1
  56   26   27 1
  57   26   77 1
  58   26   78 1
  59   27   28 1
  60   27   79 1
  61   27   80 1
  62   28   29 1
  63   28   81 1
  64   28   82 1
  65   29   30 1
  66   29   31 1
  67   30   48 1
  68   30   83 1
  69   30   84 1
  70   31   32 1
  71   31   36 1
  72   31   85 1
  73   32   33 1
  74   32   86 1
  75   32   87 1
  76   33   34 1
  77   33   88 1
  78   33   89 1
  79   34   35 1
  80   34   37 1
  81   35   36 1
  82   35   90 1
  83   35   91 1
  84   36   92 1
  85   36   93 1
  86   37   38 1
  87   37   94 1
  88   37   95 1
  89   38   39 ar
  90   38   43 ar
  91   39   40 ar
  92   39   45 1
  93   40   41 ar
  94   40   96 1
  95   41   42 ar
  96   41   97 1
  97   42   43 ar
  98   42   98 1
  99   43   44 1
 100   44   46 1
 101   45   47 1
 102   46   99 1
 103   46  100 1
 104   46  101 1
 105   47  102 1
 106   47  103 1
 107   47  104 1
 108   48   49 1
 109   48  105 1
 110   48  106 1
 111   49  107 1
 112   49  108 1
 113   49  109 1

#	End of record

