#	Name: ASD02500196
#	Creating user name:	WinNT
#	Creation time:	15. 06. 2019 20:22

#	Modifying user name:	WinNT
#	Modification time:	15. 06. 2019 20:22

#	Program:	/corina/corina34_cracker 3.40 0067  02.08.2006

@<TRIPOS>MOLECULE
ASD02500196
  61   65    0    0    0
SMALL
NO_CHARGES


@<TRIPOS>ATOM
   1 N1            -5.8789     4.3782     0.9536 N.ar    
   2 C2            -7.1326     4.7118     0.7658 C.ar    
   3 C3            -8.1558     4.1928     1.5564 C.ar    
   4 C4            -7.8632     3.3116     2.5579 C.ar    
   5 C5            -6.5158     2.9553     2.7565 C.ar    
   6 C6            -6.1386     2.0559     3.7663 C.ar    
   7 C7            -4.8245     1.7369     3.9267 C.ar    
   8 C8            -3.8484     2.2917     3.1019 C.ar    
   9 C9            -4.1788     3.1668     2.1132 C.ar    
  10 C10           -5.5247     3.5209     1.9163 C.ar    
  11 S11           -2.9239     3.8541     1.0848 S.o2    
  12 O12           -3.0788     5.2651     1.1512 O.2     
  13 O13           -1.7160     3.1879     1.4259 O.2     
  14 N14           -3.2742     3.4181    -0.4739 N.am    
  15 C15           -3.1985     2.0833    -0.8562 C.ar    
  16 C16           -2.7561     1.7506    -2.1338 C.ar    
  17 C17           -2.6800     0.4308    -2.5151 C.ar    
  18 C18           -3.0476    -0.5768    -1.6181 C.ar    
  19 C19           -3.4913    -0.2395    -0.3362 C.ar    
  20 C20           -3.5598     1.0823     0.0411 C.ar    
  21 C21           -2.9677    -1.9928    -2.0238 C.2     
  22 O22           -3.3711    -2.3353    -3.1186 O.2     
  23 N23           -2.4475    -2.9070    -1.1811 N.am    
  24 C24           -2.2290    -4.2918    -1.6219 C.3     
  25 C25           -0.7579    -4.6552    -1.3848 C.3     
  26 N26           -0.3986    -4.2849    -0.0087 N.am    
  27 C27           -0.6172    -2.9001     0.4321 C.3     
  28 C28           -2.0830    -2.5353     0.1933 C.3     
  29 C29            0.1215    -5.1991     0.8340 C.2     
  30 O30            0.1453    -6.3723     0.5184 O.2     
  31 C31            0.6644    -4.7736     2.1452 C.ar    
  32 C32            1.0488    -5.7283     3.0860 C.ar    
  33 N33            0.7916    -3.4798     2.4263 N.ar    
  34 N34            1.5326    -5.3440     4.2534 N.ar    
  35 C35            1.6522    -4.0573     4.5294 C.ar    
  36 C36            1.2753    -3.1050     3.5936 C.ar    
  37 C37           -2.3606     2.8372    -3.1002 C.3     
  38 H38           -7.3789     5.4077    -0.0226 H       
  39 H39           -9.1794     4.4874     1.3775 H       
  40 H40           -8.6438     2.8998     3.1805 H       
  41 H41           -6.8861     1.6199     4.4123 H       
  42 H42           -4.5351     1.0449     4.7037 H       
  43 H43           -2.8127     2.0232     3.2496 H       
  44 H44           -3.5323     4.0938    -1.1202 H       
  45 H45           -2.3371     0.1733    -3.5063 H       
  46 H46           -3.7759    -1.0155     0.3589 H       
  47 H47           -3.8980     1.3434     1.0330 H       
  48 H48           -2.8686    -4.9633    -1.0492 H       
  49 H49           -2.4607    -4.3787    -2.6835 H       
  50 H50           -0.6191    -5.7274    -1.5232 H       
  51 H51           -0.1283    -4.1087    -2.0869 H       
  52 H52           -0.3854    -2.8132     1.4937 H       
  53 H53            0.0224    -2.2286    -0.1406 H       
  54 H54           -2.2184    -1.4625     0.3303 H       
  55 H55           -2.7120    -3.0789     0.8983 H       
  56 H56            0.9507    -6.7800     2.8607 H       
  57 H57            2.0481    -3.7462     5.4848 H       
  58 H58            1.3791    -2.0545     3.8218 H       
  59 H59           -1.2986     3.0553    -2.9870 H       
  60 H60           -2.5568     2.5057    -4.1198 H       
  61 H61           -2.9403     3.7367    -2.8927 H       
@<TRIPOS>BOND
   1    1    2 ar
   2    1   10 ar
   3    2    3 ar
   4    2   38 1
   5    3    4 ar
   6    3   39 1
   7    4    5 ar
   8    4   40 1
   9    5    6 ar
  10    5   10 ar
  11    6    7 ar
  12    6   41 1
  13    7    8 ar
  14    7   42 1
  15    8    9 ar
  16    8   43 1
  17    9   10 ar
  18    9   11 1
  19   11   12 2
  20   11   13 2
  21   11   14 am
  22   14   15 1
  23   14   44 1
  24   15   16 ar
  25   15   20 ar
  26   16   17 ar
  27   16   37 1
  28   17   18 ar
  29   17   45 1
  30   18   19 ar
  31   18   21 1
  32   19   20 ar
  33   19   46 1
  34   20   47 1
  35   21   22 2
  36   21   23 am
  37   23   24 1
  38   23   28 1
  39   24   25 1
  40   24   48 1
  41   24   49 1
  42   25   26 1
  43   25   50 1
  44   25   51 1
  45   26   27 1
  46   26   29 am
  47   27   28 1
  48   27   52 1
  49   27   53 1
  50   28   54 1
  51   28   55 1
  52   29   30 2
  53   29   31 1
  54   31   32 ar
  55   31   33 ar
  56   32   34 ar
  57   32   56 1
  58   33   36 ar
  59   34   35 ar
  60   35   36 ar
  61   35   57 1
  62   36   58 1
  63   37   59 1
  64   37   60 1
  65   37   61 1

#	End of record

