#	Name: ASD04880301
#	Creating user name:	WinNT
#	Creation time:	15. 06. 2019 20:53

#	Modifying user name:	WinNT
#	Modification time:	15. 06. 2019 20:53

#	Program:	/corina/corina34_cracker 3.40 0067  02.08.2006

@<TRIPOS>MOLECULE
ASD04880301
  38   41    0    0    0
SMALL
NO_CHARGES


@<TRIPOS>ATOM
   1 C1            -0.0144     1.2118     0.0087 C.2     
   2 O2             0.0437    -0.0026     0.0315 O.2     
   3 N3             1.1184     1.9397    -0.0483 N.am    
   4 N4             1.1858     3.3241    -0.1910 N.2     
   5 C5             2.3862     3.7924    -0.2199 C.2     
   6 C6             3.3749     2.6564    -0.0856 C.3     
   7 C7             2.4859     1.4029     0.0364 C.3     
   8 O8             1.3613     8.6495    -0.7436 O.3     
   9 C9             2.2239     9.6738    -0.8364 C.2     
  10 N10            3.4474     9.2408    -0.7708 N.2     
  11 C11            3.4279     7.8885    -0.6297 C.ar    
  12 C12            2.0749     7.5092    -0.6125 C.ar    
  13 C13            4.4257     6.9170    -0.5128 C.ar    
  14 C14            4.0870     5.6027    -0.3810 C.ar    
  15 C15            2.7405     5.2158    -0.3624 C.ar    
  16 C16            1.7347     6.1754    -0.4791 C.ar    
  17 C17            1.8297    11.1197    -0.9946 C.3     
  18 C18           -1.3276     1.8894     0.0373 C.ar    
  19 C19           -2.5036     1.1428    -0.0542 C.ar    
  20 C20           -3.7277     1.7828    -0.0263 C.ar    
  21 C21           -3.7880     3.1624     0.0922 C.ar    
  22 C22           -2.6254     3.9060     0.1832 C.ar    
  23 C23           -1.3970     3.2779     0.1618 C.ar    
  24 F24           -4.8674     1.0629    -0.1151 F       
  25 H25            4.0093     2.5951    -0.9698 H       
  26 H26            3.9800     2.7803     0.8125 H       
  27 H27            2.6454     0.9090     0.9950 H       
  28 H28            2.6799     0.7158    -0.7872 H       
  29 H29            5.4658     7.2073    -0.5273 H       
  30 H30            4.8615     4.8553    -0.2913 H       
  31 H31            0.6964     5.8784    -0.4650 H       
  32 H32            1.7174    11.5754    -0.0108 H       
  33 H33            2.6022    11.6478    -1.5536 H       
  34 H34            0.8845    11.1816    -1.5338 H       
  35 H35           -2.4566     0.0678    -0.1469 H       
  36 H36           -4.7469     3.6589     0.1133 H       
  37 H37           -2.6793     4.9807     0.2754 H       
  38 H38           -0.4905     3.8601     0.2372 H       
@<TRIPOS>BOND
   1    1    2 2
   2    1    3 am
   3    1   18 1
   4    3    4 1
   5    3    7 1
   6    4    5 2
   7    5    6 1
   8    5   15 1
   9    6    7 1
  10    6   25 1
  11    6   26 1
  12    7   27 1
  13    7   28 1
  14    8    9 1
  15    8   12 1
  16    9   10 2
  17    9   17 1
  18   10   11 1
  19   11   12 ar
  20   11   13 ar
  21   12   16 ar
  22   13   14 ar
  23   13   29 1
  24   14   15 ar
  25   14   30 1
  26   15   16 ar
  27   16   31 1
  28   17   32 1
  29   17   33 1
  30   17   34 1
  31   18   19 ar
  32   18   23 ar
  33   19   20 ar
  34   19   35 1
  35   20   21 ar
  36   20   24 1
  37   21   22 ar
  38   21   36 1
  39   22   23 ar
  40   22   37 1
  41   23   38 1

#	End of record

