#	Name: ASD01914988
#	Creating user name:	WinNT
#	Creation time:	15. 06. 2019 20:04

#	Modifying user name:	WinNT
#	Modification time:	15. 06. 2019 20:04

#	Program:	/corina/corina34_cracker 3.40 0067  02.08.2006

@<TRIPOS>MOLECULE
ASD01914988
  19   20    0    0    0
SMALL
NO_CHARGES


@<TRIPOS>ATOM
   1 N1            -0.0158     1.3168     0.0093 N.ar    
   2 C2             0.0021    -0.0041     0.0020 C.ar    
   3 C3             1.1954    -0.7081    -0.0122 C.ar    
   4 C4             2.3915    -0.0108    -0.0190 C.ar    
   5 C5             2.3359     1.3839    -0.0115 C.ar    
   6 C6             3.5650     2.2025    -0.0170 C.2     
   7 N7             3.4903     3.4988     0.3478 N.am    
   8 C8             2.2308     4.0824     0.8019 C.3     
   9 C9             1.0509     3.5295     0.0064 C.3     
  10 C10            1.0945     2.0235     0.0025 C.ar    
  11 O11            4.6290     1.7149    -0.3454 O.2     
  12 Cl12          -1.4995    -0.8752     0.0110 Cl      
  13 H13            1.1926    -1.7881    -0.0176 H       
  14 H14            3.3384    -0.5300    -0.0294 H       
  15 H15            4.2857     4.0524     0.3077 H       
  16 H16            2.0898     3.8516     1.8578 H       
  17 H17            2.2719     5.1642     0.6755 H       
  18 H18            0.1188     3.8632     0.4625 H       
  19 H19            1.1020     3.8961    -1.0188 H       
@<TRIPOS>BOND
   1    1    2 ar
   2    1   10 ar
   3    2    3 ar
   4    2   12 1
   5    3    4 ar
   6    3   13 1
   7    4    5 ar
   8    4   14 1
   9    5    6 1
  10    5   10 ar
  11    6    7 am
  12    6   11 2
  13    7    8 1
  14    7   15 1
  15    8    9 1
  16    8   16 1
  17    8   17 1
  18    9   10 1
  19    9   18 1
  20    9   19 1

#	End of record

