#	Name: ASD01911735
#	Creating user name:	WinNT
#	Creation time:	15. 06. 2019 19:58

#	Modifying user name:	WinNT
#	Modification time:	15. 06. 2019 19:58

#	Program:	/corina/corina34_cracker 3.40 0067  02.08.2006

@<TRIPOS>MOLECULE
ASD01911735
  27   28    0    0    0
SMALL
NO_CHARGES


@<TRIPOS>ATOM
   1 N1            -0.0112     1.2602    -0.4647 N.am    
   2 C2             0.0021    -0.0041     0.0020 C.2     
   3 C3            -1.2512    -0.7546     0.1206 C.2     
   4 C4            -1.3893    -2.1141     0.0314 C.2     
   5 S5            -2.8483    -0.0696     0.4109 S.3     
   6 C6            -3.5384    -1.6330     0.3786 C.2     
   7 N7            -2.6172    -2.5347     0.1728 N.2     
   8 C8            -4.9309    -1.9146     0.5576 C.1     
   9 C9            -6.0726    -2.1455     0.7043 C.1     
  10 O10            1.0548    -0.5225     0.3250 O.2     
  11 C11            1.2125     2.0735    -0.4581 C.3     
  12 C12            1.4551     2.6108    -1.8720 C.3     
  13 C13            0.2074     3.3564    -2.3511 C.3     
  14 C14           -0.9792     2.3910    -2.3982 C.3     
  15 C15           -1.2481     1.8494    -0.9954 C.3     
  16 H16           -0.5563    -2.7795    -0.1411 H       
  17 H17           -7.0937    -2.3520     0.8355 H       
  18 H18            1.0935     2.9070     0.2341 H       
  19 H19            2.0583     1.4585    -0.1507 H       
  20 H20            2.3049     3.2932    -1.8610 H       
  21 H21            1.6637     1.7800    -2.5461 H       
  22 H22           -0.0150     4.1719    -1.6629 H       
  23 H23            0.3863     3.7608    -3.3474 H       
  24 H24           -1.8619     2.9171    -2.7618 H       
  25 H25           -0.7476     1.5623    -3.0673 H       
  26 H26           -2.0267     1.0880    -1.0408 H       
  27 H27           -1.5674     2.6632    -0.3445 H       
@<TRIPOS>BOND
   1    1    2 am
   2    1   11 1
   3    1   15 1
   4    2    3 1
   5    2   10 2
   6    3    4 2
   7    3    5 1
   8    4    7 1
   9    4   16 1
  10    5    6 1
  11    6    7 2
  12    6    8 1
  13    8    9 3
  14    9   17 1
  15   11   12 1
  16   11   18 1
  17   11   19 1
  18   12   13 1
  19   12   20 1
  20   12   21 1
  21   13   14 1
  22   13   22 1
  23   13   23 1
  24   14   15 1
  25   14   24 1
  26   14   25 1
  27   15   26 1
  28   15   27 1

#	End of record

