#	Name: ASD01917070
#	Creating user name:	WinNT
#	Creation time:	15. 06. 2019 20:08

#	Modifying user name:	WinNT
#	Modification time:	15. 06. 2019 20:08

#	Program:	/corina/corina34_cracker 3.40 0067  02.08.2006

@<TRIPOS>MOLECULE
ASD01917070
  27   28    0    0    0
SMALL
NO_CHARGES


@<TRIPOS>ATOM
   1 C1            -0.0445     1.4700     0.1629 C.ar    
   2 C2            -0.0094    -0.0064     0.0682 C.2     
   3 N3             1.0558    -0.7684     0.2130 N.2     
   4 C4             0.7181    -2.0465     0.0629 C.2     
   5 N5            -0.5653    -2.1265    -0.1799 N.2     
   6 N6            -1.0659    -0.8144    -0.1766 N.pl3   
   7 C7            -2.4536    -0.4026    -0.4021 C.3     
   8 C8            -3.1956    -0.3975     0.9096 C.2     
   9 O9            -4.4916    -0.0501     0.9462 O.3     
  10 O10           -2.6239    -0.7063     1.9283 O.2     
  11 C11           -5.1424    -0.0678     2.2441 C.3     
  12 Br12           1.9044    -3.5144     0.1812 Br      
  13 C13            1.1286     2.2096     0.0114 C.ar    
  14 C14            1.0893     3.5859     0.1009 C.ar    
  15 C15           -0.1102     4.2325     0.3402 C.ar    
  16 C16           -1.2768     3.5046     0.4918 C.ar    
  17 C17           -1.2517     2.1282     0.3983 C.ar    
  18 H18           -2.4701     0.5986    -0.8327 H       
  19 H19           -2.9330    -1.1010    -1.0880 H       
  20 H20           -5.0973    -1.0745     2.6595 H       
  21 H21           -4.6344     0.6251     2.9148 H       
  22 H22           -6.1842     0.2327     2.1323 H       
  23 H23            2.0656     1.7060    -0.1751 H       
  24 H24            1.9968     4.1597    -0.0159 H       
  25 H25           -0.1358     5.3100     0.4094 H       
  26 H26           -2.2100     4.0150     0.6792 H       
  27 H27           -2.1632     1.5610     0.5165 H       
@<TRIPOS>BOND
   1    1    2 1
   2    1   13 ar
   3    1   17 ar
   4    2    3 2
   5    2    6 1
   6    3    4 1
   7    4    5 2
   8    4   12 1
   9    5    6 1
  10    6    7 1
  11    7    8 1
  12    7   18 1
  13    7   19 1
  14    8    9 1
  15    8   10 2
  16    9   11 1
  17   11   20 1
  18   11   21 1
  19   11   22 1
  20   13   14 ar
  21   13   23 1
  22   14   15 ar
  23   14   24 1
  24   15   16 ar
  25   15   25 1
  26   16   17 ar
  27   16   26 1
  28   17   27 1

#	End of record

