#	Name: ASD01190200
#	Creating user name:	WinNT
#	Creation time:	15. 06. 2019 19:08

#	Modifying user name:	WinNT
#	Modification time:	15. 06. 2019 19:08

#	Program:	/corina/corina34_cracker 3.40 0067  02.08.2006

@<TRIPOS>MOLECULE
ASD01190200
  63   67    0    0    0
SMALL
NO_CHARGES


@<TRIPOS>ATOM
   1 C1            -0.0187     1.5258     0.0104 C.3     
   2 C2            -0.4770     1.9142     1.4175 C.3     
   3 N3             0.2383    -4.0821    -0.2979 N.pl3   
   4 N4            -1.1294    -4.3652    -0.2219 N.2     
   5 C5            -1.8106    -3.2592    -0.1196 C.2     
   6 C6            -0.8632    -2.1490    -0.1249 C.ar    
   7 C7            -0.9943    -0.7582    -0.0444 C.ar    
   8 C8             0.1211     0.0278    -0.0768 C.ar    
   9 C9             1.3842    -0.5401    -0.1898 C.ar    
  10 C10            1.5375    -1.8953    -0.2705 C.ar    
  11 C11            0.4181    -2.7224    -0.2395 C.ar    
  12 C12            1.2606    -5.0334    -0.4096 C.ar    
  13 C13            1.1424    -6.2595     0.2315 C.ar    
  14 C14            2.1514    -7.1959     0.1202 C.ar    
  15 C15            3.2804    -6.9129    -0.6302 C.ar    
  16 C16            3.4001    -5.6907    -1.2704 C.ar    
  17 C17            2.3909    -4.7538    -1.1663 C.ar    
  18 F18            4.2665    -7.8301    -0.7375 F       
  19 F19            0.4681     1.4788     2.3526 F       
  20 F20           -0.6067     3.3048     1.4985 F       
  21 F21           -1.7115     1.3141     1.6881 F       
  22 N22           -2.8404     2.9218    -1.8990 N.pl3   
  23 C23           -2.1687     2.6669    -0.7344 C.2     
  24 C24           -1.0367     1.9948    -0.9969 C.2     
  25 C25           -0.9788     1.8037    -2.4481 C.ar    
  26 C26           -0.0673     1.1916    -3.3108 C.ar    
  27 C27           -0.3078     1.1818    -4.6557 C.ar    
  28 C28           -1.4516     1.7757    -5.1719 C.ar    
  29 C29           -2.3636     2.3855    -4.3390 C.ar    
  30 C30           -2.1392     2.4069    -2.9661 C.ar    
  31 C31           -4.1184     3.6315    -1.9953 C.3     
  32 C32           -5.2640     2.6177    -2.0211 C.3     
  33 C33           -6.5988     3.3589    -2.1217 C.3     
  34 N34           -7.6987     2.3855    -2.1465 N.3     
  35 C35           -7.7939     1.6661    -0.8692 C.3     
  36 C36           -8.9720     3.0382    -2.4792 C.3     
  37 O37            1.2423     2.1387    -0.2660 O.3     
  38 H38           -2.8849    -3.1784    -0.0445 H       
  39 H39           -1.9726    -0.3091     0.0429 H       
  40 H40            2.2555     0.0976    -0.2146 H       
  41 H41            2.5249    -2.3240    -0.3584 H       
  42 H42            0.2623    -6.4805     0.8171 H       
  43 H43            2.0600    -8.1495     0.6190 H       
  44 H44            4.2816    -5.4718    -1.8548 H       
  45 H45            2.4825    -3.8027    -1.6696 H       
  46 H46           -2.5001     2.9629     0.2499 H       
  47 H47            0.8247     0.7279    -2.9164 H       
  48 H48            0.3976     0.7085    -5.3225 H       
  49 H49           -1.6278     1.7598    -6.2373 H       
  50 H50           -3.2502     2.8451    -4.7503 H       
  51 H51           -4.2346     4.2893    -1.1340 H       
  52 H52           -4.1369     4.2240    -2.9101 H       
  53 H53           -5.1478     1.9600    -2.8825 H       
  54 H54           -5.2455     2.0252    -1.1064 H       
  55 H55           -6.7150     4.0166    -1.2604 H       
  56 H56           -6.6173     3.9514    -3.0365 H       
  57 H57           -7.9752     2.3779    -0.0639 H       
  58 H58           -8.6161     0.9519    -0.9149 H       
  59 H59           -6.8610     1.1346    -0.6812 H       
  60 H60           -8.8955     3.5043    -3.4615 H       
  61 H61           -9.7692     2.2950    -2.4907 H       
  62 H62           -9.1959     3.7998    -1.7322 H       
  63 H63            1.5944     1.9356    -1.1434 H       
@<TRIPOS>BOND
   1    1    2 1
   2    1    8 1
   3    1   24 1
   4    1   37 1
   5    2   19 1
   6    2   20 1
   7    2   21 1
   8    3    4 1
   9    3   11 1
  10    3   12 1
  11    4    5 2
  12    5    6 1
  13    5   38 1
  14    6    7 ar
  15    6   11 ar
  16    7    8 ar
  17    7   39 1
  18    8    9 ar
  19    9   10 ar
  20    9   40 1
  21   10   11 ar
  22   10   41 1
  23   12   13 ar
  24   12   17 ar
  25   13   14 ar
  26   13   42 1
  27   14   15 ar
  28   14   43 1
  29   15   16 ar
  30   15   18 1
  31   16   17 ar
  32   16   44 1
  33   17   45 1
  34   22   23 1
  35   22   30 1
  36   22   31 1
  37   23   24 2
  38   23   46 1
  39   24   25 1
  40   25   26 ar
  41   25   30 ar
  42   26   27 ar
  43   26   47 1
  44   27   28 ar
  45   27   48 1
  46   28   29 ar
  47   28   49 1
  48   29   30 ar
  49   29   50 1
  50   31   32 1
  51   31   51 1
  52   31   52 1
  53   32   33 1
  54   32   53 1
  55   32   54 1
  56   33   34 1
  57   33   55 1
  58   33   56 1
  59   34   35 1
  60   34   36 1
  61   35   57 1
  62   35   58 1
  63   35   59 1
  64   36   60 1
  65   36   61 1
  66   36   62 1
  67   37   63 1

#	End of record

