#	Name: ASD01240010
#	Creating user name:	WinNT
#	Creation time:	15. 06. 2019 19:15

#	Modifying user name:	WinNT
#	Modification time:	15. 06. 2019 19:15

#	Program:	/corina/corina34_cracker 3.40 0067  02.08.2006

@<TRIPOS>MOLECULE
ASD01240010
  19   18    0    0    0
SMALL
NO_CHARGES


@<TRIPOS>ATOM
   1 C1            -0.0184     1.5028     0.0103 C.2     
   2 N2             1.3055    -0.4734    -0.4867 N.3     
   3 C3             0.0021    -0.0041     0.0020 C.3     
   4 C4            -0.2279    -0.5251     1.4221 C.3     
   5 C5            -0.3315    -2.0513     1.3948 C.3     
   6 C6            -0.5580    -2.5644     2.7936 C.2     
   7 O7            -0.6293    -1.7890     3.7174 O.2     
   8 O8            -0.6807    -3.8830     3.0131 O.3     
   9 O9             1.0197     2.1211     0.0037 O.2     
  10 O10           -1.1898     2.1580     0.0194 O.3     
  11 H11            1.4531    -0.1967    -1.4457 H       
  12 H12            2.0536    -0.1430     0.1043 H       
  13 H13           -0.7864    -0.3745    -0.6531 H       
  14 H14            0.6068    -0.2288     2.0574 H       
  15 H15           -1.1526    -0.1051     1.8179 H       
  16 H16           -1.1662    -2.3475     0.7595 H       
  17 H17            0.5932    -2.4712     0.9991 H       
  18 H18           -0.8249    -4.1643     3.9269 H       
  19 H19           -1.1523     3.1243     0.0245 H       
@<TRIPOS>BOND
   1    1    3 1
   2    1    9 2
   3    1   10 1
   4    2    3 1
   5    2   11 1
   6    2   12 1
   7    3    4 1
   8    3   13 1
   9    4    5 1
  10    4   14 1
  11    4   15 1
  12    5    6 1
  13    5   16 1
  14    5   17 1
  15    6    7 2
  16    6    8 1
  17    8   18 1
  18   10   19 1

#	End of record

