#	Name: ASD01122021
#	Creating user name:	WinNT
#	Creation time:	15. 06. 2019 18:59

#	Modifying user name:	WinNT
#	Modification time:	15. 06. 2019 18:59

#	Program:	/corina/corina34_cracker 3.40 0067  02.08.2006

@<TRIPOS>MOLECULE
ASD01122021
  66   68    0    0    0
SMALL
NO_CHARGES


@<TRIPOS>ATOM
   1 S1            -0.3091     1.8132     0.2996 S.3     
   2 C2            -0.2061     0.0824    -0.0135 C.2     
   3 C3             1.0887    -0.2378    -0.1960 C.2     
   4 N4             1.9446     0.7805    -0.1012 N.2     
   5 C5             1.4403     1.9480     0.1524 C.2     
   6 N6             2.1659     3.1203     0.2868 N.pl3   
   7 C7            -1.3683    -0.8754    -0.0678 C.3     
   8 C8            -1.8123    -1.0568    -1.5207 C.3     
   9 C9            -2.8972    -2.1333    -1.5918 C.3     
  10 C10           -2.3697     0.2650    -2.0525 C.3     
  11 C11            1.5302    -1.6191    -0.4804 C.2     
  12 C12            2.4900    -1.9824    -1.3723 C.2     
  13 C13            2.5847    -3.3883    -1.3171 C.2     
  14 C14            1.6879    -3.8086    -0.4046 C.2     
  15 O15            1.0556    -2.7364     0.1030 O.3     
  16 P16            1.3871    -5.5345     0.0656 P.3     
  17 O17            2.6006    -6.3379    -0.2036 O.2     
  18 N18            1.0150    -5.6126     1.7051 N.3     
  19 C19            0.7646    -6.9985     2.1227 C.3     
  20 C20            2.0505    -7.5992     2.6941 C.3     
  21 C21           -0.3113    -7.0187     3.1778 C.2     
  22 O22           -0.8175    -5.9846     3.5442 O.2     
  23 O23           -0.7072    -8.1854     3.7104 O.3     
  24 C24           -1.7478    -8.1292     4.7214 C.3     
  25 C25           -3.0081    -7.5023     4.1218 C.3     
  26 C26           -2.0641    -9.5451     5.2072 C.3     
  27 C27           -1.2678    -7.2807     5.9007 C.3     
  28 O28            0.1561    -6.1178    -0.7925 O.3     
  29 C29            0.3602    -6.0980    -2.1359 C.ar    
  30 C30            0.9455    -7.1866    -2.7659 C.ar    
  31 C31            1.1520    -7.1640    -4.1316 C.ar    
  32 C32            0.7758    -6.0576    -4.8706 C.ar    
  33 C33            0.1926    -4.9712    -4.2450 C.ar    
  34 C34           -0.0216    -4.9914    -2.8804 C.ar    
  35 H35            3.1311     3.1070     0.1907 H       
  36 H36            1.7089     3.9545     0.4771 H       
  37 H37           -1.0648    -1.8386     0.3424 H       
  38 H38           -2.1962    -0.4757     0.5179 H       
  39 H39           -0.9585    -1.3609    -2.1262 H       
  40 H40           -3.7510    -1.8292    -0.9863 H       
  41 H41           -3.2135    -2.2625    -2.6269 H       
  42 H42           -2.5000    -3.0750    -1.2129 H       
  43 H43           -3.1513     0.6252    -1.3834 H       
  44 H44           -1.5686     1.0022    -2.1053 H       
  45 H45           -2.7865     0.1095    -3.0475 H       
  46 H46            3.0683    -1.3218    -2.0013 H       
  47 H47            3.2504    -4.0104    -1.8970 H       
  48 H48            1.7446    -5.1934     2.2619 H       
  49 H49            0.4409    -7.5844     1.2624 H       
  50 H50            2.8287    -7.5846     1.9310 H       
  51 H51            2.3742    -7.0134     3.5544 H       
  52 H52            1.8647    -8.6276     3.0040 H       
  53 H53           -3.3501    -8.1068     3.2816 H       
  54 H54           -3.7893    -7.4601     4.8807 H       
  55 H55           -2.7828    -6.4936     3.7757 H       
  56 H56           -1.1662    -9.9917     5.6344 H       
  57 H57           -2.8453    -9.5029     5.9662 H       
  58 H58           -2.4060   -10.1496     4.3671 H       
  59 H59           -1.0425    -6.2720     5.5546 H       
  60 H60           -2.0490    -7.2385     6.6597 H       
  61 H61           -0.3700    -7.7273     6.3279 H       
  62 H62            1.2399    -8.0509    -2.1891 H       
  63 H63            1.6080    -8.0111    -4.6225 H       
  64 H64            0.9381    -6.0418    -5.9382 H       
  65 H65           -0.0997    -4.1079    -4.8244 H       
  66 H66           -0.4816    -4.1446    -2.3930 H       
@<TRIPOS>BOND
   1    1    2 1
   2    1    5 1
   3    2    3 2
   4    2    7 1
   5    3    4 1
   6    3   11 1
   7    4    5 2
   8    5    6 1
   9    6   35 1
  10    6   36 1
  11    7    8 1
  12    7   37 1
  13    7   38 1
  14    8    9 1
  15    8   10 1
  16    8   39 1
  17    9   40 1
  18    9   41 1
  19    9   42 1
  20   10   43 1
  21   10   44 1
  22   10   45 1
  23   11   12 2
  24   11   15 1
  25   12   13 1
  26   12   46 1
  27   13   14 2
  28   13   47 1
  29   14   15 1
  30   14   16 1
  31   16   17 2
  32   16   18 1
  33   16   28 1
  34   18   19 1
  35   18   48 1
  36   19   20 1
  37   19   21 1
  38   19   49 1
  39   20   50 1
  40   20   51 1
  41   20   52 1
  42   21   22 2
  43   21   23 1
  44   23   24 1
  45   24   25 1
  46   24   26 1
  47   24   27 1
  48   25   53 1
  49   25   54 1
  50   25   55 1
  51   26   56 1
  52   26   57 1
  53   26   58 1
  54   27   59 1
  55   27   60 1
  56   27   61 1
  57   28   29 1
  58   29   30 ar
  59   29   34 ar
  60   30   31 ar
  61   30   62 1
  62   31   32 ar
  63   31   63 1
  64   32   33 ar
  65   32   64 1
  66   33   34 ar
  67   33   65 1
  68   34   66 1

#	End of record

