#	Name: ASD01883684
#	Creating user name:	WinNT
#	Creation time:	15. 06. 2019 19:46

#	Modifying user name:	WinNT
#	Modification time:	15. 06. 2019 19:46

#	Program:	/corina/corina34_cracker 3.40 0067  02.08.2006

@<TRIPOS>MOLECULE
ASD01883684
  43   46    0    0    0
SMALL
NO_CHARGES


@<TRIPOS>ATOM
   1 C1             0.0147     1.1635    -1.5532 C.2     
   2 C2             0.0351    -0.0661    -0.8792 C.2     
   3 C3            -1.1791    -0.6091    -0.4100 C.2     
   4 C4            -2.3461     0.0343    -0.6011 C.2     
   5 N5            -2.4118     1.2320    -1.2518 N.pl3   
   6 C6            -1.2761     1.8314    -1.7334 C.2     
   7 C7            -3.4592     2.0598    -1.5623 C.2     
   8 C8            -2.9467     3.1217    -2.2192 C.2     
   9 N9            -1.6219     2.9668    -2.3130 N.2     
  10 C10           -4.9112     1.8275    -1.2324 C.3     
  11 C11           -5.6064     1.1692    -2.4259 C.3     
  12 C12            1.3102    -0.7826    -0.6640 C.ar    
  13 C13            1.7972    -0.9715     0.6313 C.ar    
  14 C14            2.9859    -1.6397     0.8278 C.ar    
  15 C15            3.7002    -2.1254    -0.2607 C.ar    
  16 C16            3.2191    -1.9390    -1.5510 C.ar    
  17 C17            2.0281    -1.2772    -1.7552 C.ar    
  18 O18            4.8713    -2.7835    -0.0631 O.3     
  19 C19            6.0205    -2.0574    -0.0711 C.ar    
  20 C20            7.2499    -2.6993     0.0118 C.ar    
  21 C21            8.4172    -1.9571     0.0030 C.ar    
  22 C22            8.3602    -0.5787    -0.0878 C.ar    
  23 C23            7.1374     0.0615    -0.1704 C.ar    
  24 C24            5.9682    -0.6748    -0.1677 C.ar    
  25 F25           -4.9905    -0.0550    -2.7072 F       
  26 F26           -6.9543     0.9536    -2.1197 F       
  27 F27           -5.5100     2.0071    -3.5421 F       
  28 F28            7.3052    -4.0462     0.1014 F       
  29 C29            1.2232     1.7526    -2.0463 C.1     
  30 N30            2.1819     2.2199    -2.4375 N.1     
  31 H31           -1.1727    -1.5556     0.1102 H       
  32 H32           -3.2570    -0.4106    -0.2289 H       
  33 H33           -3.5119     3.9584    -2.6024 H       
  34 H34           -4.9864     1.1747    -0.3628 H       
  35 H35           -5.3911     2.7814    -1.0133 H       
  36 H36            1.2428    -0.5940     1.4778 H       
  37 H37            3.3633    -1.7859     1.8291 H       
  38 H38            3.7774    -2.3172    -2.3946 H       
  39 H39            1.6547    -1.1330    -2.7582 H       
  40 H40            9.3736    -2.4547     0.0673 H       
  41 H41            9.2725    -0.0008    -0.0939 H       
  42 H42            7.0962     1.1384    -0.2412 H       
  43 H43            5.0138    -0.1735    -0.2326 H       
@<TRIPOS>BOND
   1    1    2 2
   2    1   29 1
   3    1    6 1
   4    2    3 1
   5    2   12 1
   6    3    4 2
   7    3   31 1
   8    4    5 1
   9    4   32 1
  10    5    6 1
  11    5    7 1
  12    6    9 2
  13    7    8 2
  14    7   10 1
  15    8    9 1
  16    8   33 1
  17   10   11 1
  18   10   34 1
  19   10   35 1
  20   11   25 1
  21   11   26 1
  22   11   27 1
  23   12   13 ar
  24   12   17 ar
  25   13   14 ar
  26   13   36 1
  27   14   15 ar
  28   14   37 1
  29   15   16 ar
  30   15   18 1
  31   16   17 ar
  32   16   38 1
  33   17   39 1
  34   18   19 1
  35   19   20 ar
  36   19   24 ar
  37   20   21 ar
  38   20   28 1
  39   21   22 ar
  40   21   40 1
  41   22   23 ar
  42   22   41 1
  43   23   24 ar
  44   23   42 1
  45   24   43 1
  46   29   30 3

#	End of record

