#	Name: ASD03331742
#	Creating user name:	WinNT
#	Creation time:	15. 06. 2019 20:39

#	Modifying user name:	WinNT
#	Modification time:	15. 06. 2019 20:39

#	Program:	/corina/corina34_cracker 3.40 0067  02.08.2006

@<TRIPOS>MOLECULE
ASD03331742
  44   47    0    0    0
SMALL
NO_CHARGES


@<TRIPOS>ATOM
   1 C1            -0.0294     1.6032    -0.2837 C.ar    
   2 C2            -0.0586     0.2375    -0.3152 C.ar    
   3 C3             1.0610    -0.5002     0.0438 C.ar    
   4 C4             2.2216     0.1298     0.4382 C.ar    
   5 C5             1.1368     2.2633     0.1131 C.ar    
   6 C6             1.5043     3.6710     0.2569 C.2     
   7 C7             2.2751     1.5189     0.4782 C.ar    
   8 N8             3.2629     2.4166     0.8189 N.pl3   
   9 C9             2.7913     3.7020     0.6833 C.2     
  10 C10            0.6214     4.8611    -0.0175 C.3     
  11 C11            3.5687     4.9292     0.9599 C.ar    
  12 C12            0.9503     5.4284    -1.3743 C.ar    
  13 C13           -0.8450     4.4256     0.0115 C.3     
  14 C14            3.5905     5.9692     0.0295 C.ar    
  15 C15            4.2788     5.0542     2.1547 C.ar    
  16 C16            5.0022     6.2013     2.4072 C.ar    
  17 C17            5.0247     7.2275     1.4777 C.ar    
  18 C18            4.3175     7.1115     0.2929 C.ar    
  19 C19            1.5216     7.2975    -2.7573 C.ar    
  20 C20            1.5542     6.4691    -3.8635 C.ar    
  21 C21            1.2784     5.1215    -3.7261 C.ar    
  22 C22            0.9768     4.6011    -2.4815 C.ar    
  23 C23            1.2199     6.7771    -1.5127 C.ar    
  24 N24           -1.1351     3.7717     1.2900 N.pl3   
  25 O25           -0.7841     4.2923     2.3337 O.2     
  26 O26           -1.7273     2.7075     1.3092 O.2     
  27 Cl27           5.9369     8.6683     1.8026 Cl      
  28 H28           -0.9030     2.1706    -0.5687 H       
  29 H29           -0.9602    -0.2721    -0.6216 H       
  30 H30            1.0222    -1.5790     0.0140 H       
  31 H31            3.0870    -0.4536     0.7159 H       
  32 H32            4.1565     2.1783     1.1114 H       
  33 H33            0.7897     5.6217     0.7449 H       
  34 H34           -1.4859     5.2998    -0.1032 H       
  35 H35           -1.0330     3.7277    -0.8044 H       
  36 H36            3.0396     5.8796    -0.8951 H       
  37 H37            4.2616     4.2546     2.8805 H       
  38 H38            5.5518     6.2993     3.3317 H       
  39 H39            4.3351     7.9169    -0.4264 H       
  40 H40            1.7370     8.3503    -2.8646 H       
  41 H41            1.7898     6.8756    -4.8359 H       
  42 H42            1.3038     4.4742    -4.5903 H       
  43 H43            0.7621     3.5481    -2.3740 H       
  44 H44            1.1945     7.4243    -0.6485 H       
@<TRIPOS>BOND
   1    1    2 ar
   2    1    5 ar
   3    1   28 1
   4    2    3 ar
   5    2   29 1
   6    3    4 ar
   7    3   30 1
   8    4    7 ar
   9    4   31 1
  10    5    7 ar
  11    5    6 1
  12    6    9 2
  13    6   10 1
  14    7    8 1
  15    8    9 1
  16    8   32 1
  17    9   11 1
  18   10   12 1
  19   10   13 1
  20   10   33 1
  21   11   15 ar
  22   11   14 ar
  23   12   23 ar
  24   12   22 ar
  25   13   24 1
  26   13   34 1
  27   13   35 1
  28   14   18 ar
  29   14   36 1
  30   15   16 ar
  31   15   37 1
  32   16   17 ar
  33   16   38 1
  34   17   18 ar
  35   17   27 1
  36   18   39 1
  37   19   20 ar
  38   19   23 ar
  39   19   40 1
  40   20   21 ar
  41   20   41 1
  42   21   22 ar
  43   21   42 1
  44   22   43 1
  45   23   44 1
  46   24   25 2
  47   24   26 2

#	End of record

