#	Name: ASD01815660
#	Creating user name:	WinNT
#	Creation time:	15. 06. 2019 19:33

#	Modifying user name:	WinNT
#	Modification time:	15. 06. 2019 19:33

#	Program:	/corina/corina34_cracker 3.40 0067  02.08.2006

@<TRIPOS>MOLECULE
ASD01815660
  58   60    0    0    0
SMALL
NO_CHARGES


@<TRIPOS>ATOM
   1 C1            -0.0188     1.5384     0.0105 C.3     
   2 C2             0.0021    -0.0041     0.0020 C.3     
   3 C3             1.3855     2.0850     0.0000 C.2     
   4 O4             2.3315     1.3262    -0.0131 O.2     
   5 N5             1.5902     3.4171     0.0052 N.am    
   6 C6             2.9554     3.9485    -0.0050 C.3     
   7 C7             2.9632     5.3489     0.6122 C.3     
   8 N8             4.3279     5.8904     0.5830 N.3     
   9 C9             4.8179     6.0213    -0.7951 C.3     
  10 C10            4.8655     4.6409    -1.4542 C.3     
  11 C11            3.4619     4.0290    -1.4477 C.3     
  12 C12            4.3997     7.1752     1.2915 C.3     
  13 C13            5.8549     7.6458     1.3478 C.3     
  14 C14            5.9302     8.9684     2.1172 C.3     
  15 N15            5.0087     9.9298     1.4966 N.am    
  16 C16            3.6035     9.5428     1.3113 C.3     
  17 C17            3.5542     8.2138     0.5509 C.3     
  18 C18            5.4440    11.1437     1.1051 C.2     
  19 O19            6.6086    11.4520     1.2642 O.2     
  20 O20            4.5885    12.0149     0.5376 O.3     
  21 C21            5.1268    13.3036     0.1406 C.3     
  22 C22            4.0147    14.1515    -0.4802 C.3     
  23 C23           -1.1670    -0.4546    -0.8913 C.3     
  24 C24           -1.8575     0.8298    -1.3945 C.3     
  25 C25           -0.7571     1.9155    -1.2979 C.3     
  26 H26           -0.5645     1.9078     0.8788 H       
  27 H27            0.9458    -0.3624    -0.4091 H       
  28 H28           -0.1332    -0.3849     1.0143 H       
  29 H29            0.8336     4.0241     0.0157 H       
  30 H30            3.6057     3.2922     0.5735 H       
  31 H31            2.3016     6.0008     0.0418 H       
  32 H32            2.6167     5.2930     1.6441 H       
  33 H33            4.1476     6.6700    -1.3588 H       
  34 H34            5.8184     6.4537    -0.7852 H       
  35 H35            5.2144     4.7403    -2.4821 H       
  36 H36            5.5463     3.9958    -0.8990 H       
  37 H37            3.4990     3.0278    -1.8771 H       
  38 H38            2.7894     4.6538    -2.0355 H       
  39 H39            4.0182     7.0528     2.3052 H       
  40 H40            6.4607     6.8949     1.8549 H       
  41 H41            6.2292     7.7925     0.3347 H       
  42 H42            5.6420     8.8040     3.1555 H       
  43 H43            6.9474     9.3580     2.0755 H       
  44 H44            3.1255     9.4253     2.2838 H       
  45 H45            3.0854    10.3114     0.7377 H       
  46 H46            3.9502     8.3552    -0.4548 H       
  47 H47            2.5225     7.8672     0.4907 H       
  48 H48            5.5280    13.8150     1.0157 H       
  49 H49            5.9219    13.1558    -0.5901 H       
  50 H50            3.6135    13.6402    -1.3552 H       
  51 H51            3.2196    14.2993     0.2506 H       
  52 H52            4.4188    15.1190    -0.7782 H       
  53 H53           -0.7906    -1.0316    -1.7360 H       
  54 H54           -1.8697    -1.0541    -0.3125 H       
  55 H55           -2.1836     0.7080    -2.4274 H       
  56 H56           -2.7021     1.0847    -0.7544 H       
  57 H57           -1.1999     2.9084    -1.2192 H       
  58 H58           -0.0825     1.8588    -2.1522 H       
@<TRIPOS>BOND
   1    1    2 1
   2    1    3 1
   3    1   25 1
   4    1   26 1
   5    2   23 1
   6    2   27 1
   7    2   28 1
   8    3    4 2
   9    3    5 am
  10    5    6 1
  11    5   29 1
  12    6    7 1
  13    6   11 1
  14    6   30 1
  15    7    8 1
  16    7   31 1
  17    7   32 1
  18    8    9 1
  19    8   12 1
  20    9   10 1
  21    9   33 1
  22    9   34 1
  23   10   11 1
  24   10   35 1
  25   10   36 1
  26   11   37 1
  27   11   38 1
  28   12   13 1
  29   12   17 1
  30   12   39 1
  31   13   14 1
  32   13   40 1
  33   13   41 1
  34   14   15 1
  35   14   42 1
  36   14   43 1
  37   15   16 1
  38   15   18 am
  39   16   17 1
  40   16   44 1
  41   16   45 1
  42   17   46 1
  43   17   47 1
  44   18   19 2
  45   18   20 1
  46   20   21 1
  47   21   22 1
  48   21   48 1
  49   21   49 1
  50   22   50 1
  51   22   51 1
  52   22   52 1
  53   23   24 1
  54   23   53 1
  55   23   54 1
  56   24   25 1
  57   24   55 1
  58   24   56 1
  59   25   57 1
  60   25   58 1

#	End of record

