#	Name: ASD00731042
#	Creating user name:	WinNT
#	Creation time:	15. 06. 2019 18:37

#	Modifying user name:	WinNT
#	Modification time:	15. 06. 2019 18:37

#	Program:	/corina/corina34_cracker 3.40 0067  02.08.2006

@<TRIPOS>MOLECULE
ASD00731042
 233  234    0    0    0
SMALL
NO_CHARGES


@<TRIPOS>ATOM
   1 C1            -0.7374     0.4661    -1.1021 C.2     
   2 O2            -1.1497    -0.0721    -2.1077 O.2     
   3 N3             1.3801     0.5979    -2.2804 N.am    
   4 C4             0.6978     0.9192    -1.0243 C.3     
   5 C5             0.7436     2.4306    -0.7912 C.3     
   6 C6             2.1959     2.9099    -0.8364 C.3     
   7 O7            -0.0085     3.0927    -1.8100 O.3     
   8 C8            -3.7387     1.5187    -0.7119 C.2     
   9 O9            -3.1462     2.5442    -0.9730 O.2     
  10 N10           -1.5641     0.6640    -0.0563 N.am    
  11 C11           -2.9857     0.3298    -0.1729 C.3     
  12 C12           -3.5371    -0.0411     1.2053 C.3     
  13 C13           -2.8885    -1.3161     1.6794 C.2     
  14 O14           -2.0079    -1.8248     1.0269 O.2     
  15 O15           -3.2891    -1.8866     2.8265 O.3     
  16 C16           -7.2434     2.5193    -0.9932 C.2     
  17 O17           -7.6215     1.5893    -0.3128 O.2     
  18 N18           -5.0705     1.4423    -0.9039 N.am    
  19 C19           -5.8026     2.5981    -1.4279 C.3     
  20 C20           -5.7301     2.5975    -2.9562 C.3     
  21 C21           -4.2798     2.8027    -3.3981 C.3     
  22 C22           -4.2074     2.8021    -4.9264 C.3     
  23 N23           -2.8186     2.9986    -5.3495 N.pl3   
  24 C24           -2.5063     3.0338    -6.6879 C.2     
  25 N25           -1.2707     3.2086    -7.0644 N.2     
  26 N26           -3.4971     2.8847    -7.6292 N.pl3   
  27 C27          -10.4014     4.1214    -1.8486 C.2     
  28 O28           -9.9471     4.8683    -2.6891 O.2     
  29 N29           -8.1117     3.4823    -1.3607 N.am    
  30 C30           -9.4843     3.4651    -0.8489 C.3     
  31 C31           -9.5443     4.2282     0.4758 C.3     
  32 C32          -10.9391     4.0802     1.0870 C.3     
  33 C33          -11.1696     2.6208     1.4842 C.3     
  34 C34          -11.0496     4.9698     2.3269 C.3     
  35 C35          -14.0017     4.5616    -2.3036 C.2     
  36 O36          -14.2425     4.2359    -1.1604 O.2     
  37 N37          -11.7264     3.8781    -1.8085 N.am    
  38 C38          -12.6031     4.4239    -2.8477 C.3     
  39 C39          -12.6150     3.4805    -4.0521 C.3     
  40 C40          -11.2205     3.4378    -4.6803 C.3     
  41 C41          -11.2324     2.4944    -5.8848 C.3     
  42 N42           -9.8972     2.4535    -6.4862 N.pl3   
  43 C43           -9.6642     1.6674    -7.5898 C.2     
  44 N44           -8.4762     1.6310    -8.1249 N.2     
  45 N45          -10.6841     0.9196    -8.1289 N.pl3   
  46 C46          -17.3325     5.1368    -3.6958 C.2     
  47 O47          -16.9396     5.0066    -4.8357 O.2     
  48 N48          -14.9850     5.0467    -3.0875 N.am    
  49 C49          -16.3446     5.1805    -2.5586 C.3     
  50 C50          -16.4756     6.5142    -1.8202 C.3     
  51 C51          -15.5624     6.5093    -0.5926 C.3     
  52 C52          -15.6934     7.8429     0.1457 C.3     
  53 C53          -14.7803     7.8380     1.3733 C.3     
  54 N54          -14.9061     9.1185     2.0823 N.3     
  55 C55          -20.8743     5.9200    -4.1492 C.2     
  56 O56          -20.9622     6.4196    -3.0476 O.2     
  57 N57          -18.6527     5.2423    -3.4459 N.am    
  58 C58          -19.6131     5.1998    -4.5514 C.3     
  59 C59          -19.9419     3.7434    -4.8856 C.3     
  60 C60          -18.7056     3.0557    -5.4048 C.2     
  61 C61          -18.3594     2.9006    -6.6925 C.2     
  62 N62          -17.1715     2.2269    -6.7784 N.pl3   
  63 C63          -16.7127     1.9241    -5.5159 C.ar    
  64 C64          -15.5837     1.2662    -5.0396 C.ar    
  65 C65          -15.3999     1.1178    -3.6821 C.ar    
  66 C66          -16.3308     1.6187    -2.7828 C.ar    
  67 C67          -17.4475     2.2681    -3.2290 C.ar    
  68 C68          -17.6506     2.4352    -4.5999 C.ar    
  69 C69          -24.2900     6.1782    -5.4257 C.2     
  70 O70          -24.1099     5.3014    -6.2441 O.2     
  71 N71          -21.9045     6.0089    -5.0136 N.am    
  72 C72          -23.1305     6.7090    -4.6226 C.3     
  73 C73          -22.9692     8.2071    -4.8885 C.3     
  74 C74          -21.8741     8.7711    -3.9811 C.3     
  75 S75          -21.6829    10.5472    -4.2964 S.3     
  76 C76          -20.3639    11.0261    -3.1469 C.3     
  77 C77          -27.7311     7.2128    -6.0975 C.2     
  78 O78          -27.5727     8.2870    -5.5574 O.2     
  79 N79          -25.5270     6.6778    -5.2344 N.am    
  80 C80          -26.6542     6.1618    -6.0151 C.3     
  81 C81          -27.2140     4.9101    -5.3365 C.3     
  82 C82          -30.7932     7.8992    -5.6282 C.2     
  83 O83          -30.5663     7.0725    -4.7766 O.2     
  84 N84          -28.8703     6.9589    -6.7716 N.am    
  85 C85          -29.9172     7.9806    -6.8517 C.3     
  86 C86          -30.7654     7.7445    -8.1029 C.3     
  87 C87          -31.7785     8.8810    -8.2542 C.3     
  88 C88          -32.5418     8.7122    -9.5694 C.3     
  89 C89          -31.5082     6.4133    -7.9719 C.3     
  90 O90          -31.8255     8.7450    -5.4844 O.3     
  91 C91            2.7172     0.4297    -2.2970 C.2     
  92 O92            3.3556     0.5443    -1.2722 O.2     
  93 C93           18.9218    -3.2087   -10.9782 C.3     
  94 C94           18.2092    -2.8733    -9.6664 C.3     
  95 C95           16.7071    -2.7362    -9.9226 C.3     
  96 C96           15.9946    -2.4007    -8.6108 C.3     
  97 C97           14.4924    -2.2636    -8.8670 C.3     
  98 C98           13.7799    -1.9281    -7.5553 C.3     
  99 C99           12.2777    -1.7910    -7.8114 C.3     
 100 C100          11.5652    -1.4555    -6.4997 C.3     
 101 C101          10.0630    -1.3184    -6.7558 C.3     
 102 C102           9.3505    -0.9830    -5.4441 C.3     
 103 C103           7.8484    -0.8458    -5.7002 C.3     
 104 C104           7.1358    -0.5104    -4.3885 C.3     
 105 C105           5.6337    -0.3733    -4.6447 C.3     
 106 C106           4.9212    -0.0378    -3.3329 C.3     
 107 C107           3.4190     0.0993    -3.5891 C.3     
 108 H108           0.8695     0.5063    -3.1000 H       
 109 H109           1.1957     0.4091    -0.1997 H       
 110 H110           0.3152     2.6609     0.1843 H       
 111 H111           2.6242     2.6796    -1.8119 H       
 112 H112           2.2285     3.9866    -0.6703 H       
 113 H113           2.7696     2.4048    -0.0593 H       
 114 H114           0.3171     2.9323    -2.7063 H       
 115 H115          -1.2179     1.0278     0.7736 H       
 116 H116          -3.1059    -0.5146    -0.8516 H       
 117 H117          -3.3207     0.7609     1.9110 H       
 118 H118          -4.6155    -0.1851     1.1384 H       
 119 H119          -2.8434    -2.7035     3.0895 H       
 120 H120          -5.5444     0.6221    -0.6951 H       
 121 H121          -5.3567     3.5154    -1.0433 H       
 122 H122          -6.0944     1.6433    -3.3368 H       
 123 H123          -6.3475     3.4051    -3.3495 H       
 124 H124          -3.9155     3.7569    -3.0174 H       
 125 H125          -3.6624     1.9950    -3.0048 H       
 126 H126          -4.5716     1.8479    -5.3070 H       
 127 H127          -4.8248     3.6097    -5.3197 H       
 128 H128          -2.1195     3.1038    -4.6854 H       
 129 H129          -1.0503     3.2335    -8.0087 H       
 130 H130          -4.4167     2.7546    -7.3490 H       
 131 H131          -3.2768     2.9096    -8.5735 H       
 132 H132          -7.8279     4.1868    -1.9640 H       
 133 H133          -9.7995     2.4340    -0.6889 H       
 134 H134          -8.8017     3.8224     1.1628 H       
 135 H135          -9.3359     5.2831     0.2973 H       
 136 H136         -11.6898     4.3807     0.3561 H       
 137 H137         -12.1237     2.5320     2.0038 H       
 138 H138         -11.1840     1.9986     0.5893 H       
 139 H139         -10.3654     2.2920     2.1425 H       
 140 H140         -10.8854     6.0095     2.0439 H       
 141 H141         -12.0433     4.8644     2.7622 H       
 142 H142         -10.2990     4.6692     3.0578 H       
 143 H143         -12.0996     3.3417    -1.0916 H       
 144 H144         -12.2353     5.4025    -3.1562 H       
 145 H145         -12.8977     2.4793    -3.7267 H       
 146 H146         -13.3342     3.8399    -4.7881 H       
 147 H147         -10.9379     4.4389    -5.0057 H       
 148 H148         -10.5013     3.0784    -3.9443 H       
 149 H149         -11.5151     1.4932    -5.5593 H       
 150 H150         -11.9516     2.8538    -6.6207 H       
 151 H151          -9.1776     2.9811    -6.1059 H       
 152 H152          -8.3118     1.0764    -8.9036 H       
 153 H153         -11.5682     0.9467    -7.7306 H       
 154 H154         -10.5197     0.3650    -8.9075 H       
 155 H155         -14.7924     5.3071    -4.0018 H       
 156 H156         -16.5483     4.3617    -1.8686 H       
 157 H157         -16.1859     7.3277    -2.4853 H       
 158 H158         -17.5092     6.6542    -1.5037 H       
 159 H159         -15.8521     5.6958     0.0725 H       
 160 H160         -14.5289     6.3692    -0.9092 H       
 161 H161         -15.4038     8.6564    -0.5194 H       
 162 H162         -16.7270     7.9829     0.4623 H       
 163 H163         -15.0700     7.0245     2.0384 H       
 164 H164         -13.7467     7.6980     1.0568 H       
 165 H165         -15.8669     9.3019     2.3297 H       
 166 H166         -14.3122     9.1402     2.8977 H       
 167 H167         -18.9670     5.3464    -2.5342 H       
 168 H168         -19.1812     5.6848    -5.4268 H       
 169 H169         -20.2906     3.2343    -3.9871 H       
 170 H170         -20.7217     3.7124    -5.6466 H       
 171 H171         -18.9335     3.2549    -7.5358 H       
 172 H172         -16.7200     1.9967    -7.6054 H       
 173 H173         -14.8537     0.8726    -5.7314 H       
 174 H174         -14.5227     0.6063    -3.3142 H       
 175 H175         -16.1717     1.4939    -1.7219 H       
 176 H176         -18.1678     2.6548    -2.5233 H       
 177 H177         -21.8341     5.6093    -5.8947 H       
 178 H178         -23.3189     6.5466    -3.5614 H       
 179 H179         -22.6933     8.3633    -5.9314 H       
 180 H180         -23.9106     8.7162    -4.6816 H       
 181 H181         -22.1501     8.6148    -2.9383 H       
 182 H182         -20.9328     8.2620    -4.1881 H       
 183 H183         -20.1610    12.0920    -3.2503 H       
 184 H184         -20.6776    10.8134    -2.1249 H       
 185 H185         -19.4603    10.4605    -3.3747 H       
 186 H186         -25.6710     7.3791    -4.5799 H       
 187 H187         -26.3150     5.9095    -7.0198 H       
 188 H188         -28.0527     4.5261    -5.9173 H       
 189 H189         -26.4351     4.1499    -5.2769 H       
 190 H190         -27.5532     5.1623    -4.3318 H       
 191 H191         -28.9970     6.0997    -7.2036 H       
 192 H192         -29.4581     8.9678    -6.9049 H       
 193 H193         -30.1189     7.7150    -8.9800 H       
 194 H194         -32.4806     8.8552    -7.4207 H       
 195 H195         -31.2544     9.8368    -8.2583 H       
 196 H196         -31.8398     8.7380   -10.4028 H       
 197 H197         -33.0659     7.7565    -9.5652 H       
 198 H198         -33.2636     9.5219    -9.6771 H       
 199 H199         -30.7864     5.6036    -7.8641 H       
 200 H200         -32.1547     6.4428    -7.0948 H       
 201 H201         -32.1125     6.2451    -8.8633 H       
 202 H202         -32.3589     8.6544    -4.6829 H       
 203 H203          18.5333    -4.1476   -11.3729 H       
 204 H204          18.7477    -2.4112   -11.7005 H       
 205 H205          19.9919    -3.3064   -10.7957 H       
 206 H206          18.3833    -3.6708    -8.9441 H       
 207 H207          18.5977    -1.9344    -9.2717 H       
 208 H208          16.5330    -1.9386   -10.6449 H       
 209 H209          16.3186    -3.6750   -10.3173 H       
 210 H210          16.1687    -3.1982    -7.8885 H       
 211 H211          16.3830    -1.4618    -8.2162 H       
 212 H212          14.3183    -1.4660    -9.5893 H       
 213 H213          14.1040    -3.2024    -9.2617 H       
 214 H214          13.9540    -2.7256    -6.8329 H       
 215 H215          14.1683    -0.9893    -7.1606 H       
 216 H216          12.1036    -0.9935    -8.5337 H       
 217 H217          11.8893    -2.7298    -8.2061 H       
 218 H218          11.7393    -2.2531    -5.7774 H       
 219 H219          11.9537    -0.5167    -6.1050 H       
 220 H220           9.8890    -0.5209    -7.4781 H       
 221 H221           9.6746    -2.2573    -7.1505 H       
 222 H222           9.5246    -1.7805    -4.7218 H       
 223 H223           9.7390    -0.0441    -5.0494 H       
 224 H224           7.6743    -0.0483    -6.4226 H       
 225 H225           7.4599    -1.7847    -6.0949 H       
 226 H226           7.3099    -1.3079    -3.6662 H       
 227 H227           7.5243     0.4285    -3.9938 H       
 228 H228           5.4596     0.4243    -5.3670 H       
 229 H229           5.2452    -1.3121    -5.0393 H       
 230 H230           5.0953    -0.8353    -2.6106 H       
 231 H231           5.3096     0.9010    -2.9382 H       
 232 H232           3.0306    -0.8395    -3.9838 H       
 233 H233           3.2449     0.8968    -4.3114 H       
@<TRIPOS>BOND
   1    1    2 2
   2    1    4 1
   3    1   10 am
   4    3   91 am
   5    3    4 1
   6    3  108 1
   7    4    5 1
   8    4  109 1
   9    5    6 1
  10    5    7 1
  11    5  110 1
  12    6  111 1
  13    6  112 1
  14    6  113 1
  15    7  114 1
  16    8    9 2
  17    8   11 1
  18    8   18 am
  19   10   11 1
  20   10  115 1
  21   11   12 1
  22   11  116 1
  23   12   13 1
  24   12  117 1
  25   12  118 1
  26   13   14 2
  27   13   15 1
  28   15  119 1
  29   16   17 2
  30   16   19 1
  31   16   29 am
  32   18   19 1
  33   18  120 1
  34   19   20 1
  35   19  121 1
  36   20   21 1
  37   20  122 1
  38   20  123 1
  39   21   22 1
  40   21  124 1
  41   21  125 1
  42   22   23 1
  43   22  126 1
  44   22  127 1
  45   23   24 1
  46   23  128 1
  47   24   25 2
  48   24   26 1
  49   25  129 1
  50   26  130 1
  51   26  131 1
  52   27   28 2
  53   27   30 1
  54   27   37 am
  55   29   30 1
  56   29  132 1
  57   30   31 1
  58   30  133 1
  59   31   32 1
  60   31  134 1
  61   31  135 1
  62   32   33 1
  63   32   34 1
  64   32  136 1
  65   33  137 1
  66   33  138 1
  67   33  139 1
  68   34  140 1
  69   34  141 1
  70   34  142 1
  71   35   36 2
  72   35   38 1
  73   35   48 am
  74   37   38 1
  75   37  143 1
  76   38   39 1
  77   38  144 1
  78   39   40 1
  79   39  145 1
  80   39  146 1
  81   40   41 1
  82   40  147 1
  83   40  148 1
  84   41   42 1
  85   41  149 1
  86   41  150 1
  87   42   43 1
  88   42  151 1
  89   43   44 2
  90   43   45 1
  91   44  152 1
  92   45  153 1
  93   45  154 1
  94   46   47 2
  95   46   49 1
  96   46   57 am
  97   48   49 1
  98   48  155 1
  99   49   50 1
 100   49  156 1
 101   50   51 1
 102   50  157 1
 103   50  158 1
 104   51   52 1
 105   51  159 1
 106   51  160 1
 107   52   53 1
 108   52  161 1
 109   52  162 1
 110   53   54 1
 111   53  163 1
 112   53  164 1
 113   54  165 1
 114   54  166 1
 115   55   56 2
 116   55   58 1
 117   55   71 am
 118   57   58 1
 119   57  167 1
 120   58   59 1
 121   58  168 1
 122   59   60 1
 123   59  169 1
 124   59  170 1
 125   60   61 2
 126   60   68 1
 127   61   62 1
 128   61  171 1
 129   62   63 1
 130   62  172 1
 131   63   64 ar
 132   63   68 ar
 133   64   65 ar
 134   64  173 1
 135   65   66 ar
 136   65  174 1
 137   66   67 ar
 138   66  175 1
 139   67   68 ar
 140   67  176 1
 141   69   70 2
 142   69   72 1
 143   69   79 am
 144   71   72 1
 145   71  177 1
 146   72   73 1
 147   72  178 1
 148   73   74 1
 149   73  179 1
 150   73  180 1
 151   74   75 1
 152   74  181 1
 153   74  182 1
 154   75   76 1
 155   76  183 1
 156   76  184 1
 157   76  185 1
 158   77   78 2
 159   77   80 1
 160   77   84 am
 161   79   80 1
 162   79  186 1
 163   80   81 1
 164   80  187 1
 165   81  188 1
 166   81  189 1
 167   81  190 1
 168   82   83 2
 169   82   85 1
 170   82   90 1
 171   84   85 1
 172   84  191 1
 173   85   86 1
 174   85  192 1
 175   86   87 1
 176   86   89 1
 177   86  193 1
 178   87   88 1
 179   87  194 1
 180   87  195 1
 181   88  196 1
 182   88  197 1
 183   88  198 1
 184   89  199 1
 185   89  200 1
 186   89  201 1
 187   90  202 1
 188   91   92 2
 189   91  107 1
 190   93   94 1
 191   93  203 1
 192   93  204 1
 193   93  205 1
 194   94   95 1
 195   94  206 1
 196   94  207 1
 197   95   96 1
 198   95  208 1
 199   95  209 1
 200   96   97 1
 201   96  210 1
 202   96  211 1
 203   97   98 1
 204   97  212 1
 205   97  213 1
 206   98   99 1
 207   98  214 1
 208   98  215 1
 209   99  100 1
 210   99  216 1
 211   99  217 1
 212  100  101 1
 213  100  218 1
 214  100  219 1
 215  101  102 1
 216  101  220 1
 217  101  221 1
 218  102  103 1
 219  102  222 1
 220  102  223 1
 221  103  104 1
 222  103  224 1
 223  103  225 1
 224  104  105 1
 225  104  226 1
 226  104  227 1
 227  105  106 1
 228  105  228 1
 229  105  229 1
 230  106  107 1
 231  106  230 1
 232  106  231 1
 233  107  232 1
 234  107  233 1

#	End of record

