#	Name: ASD03091751
#	Creating user name:	WinNT
#	Creation time:	15. 06. 2019 20:31

#	Modifying user name:	WinNT
#	Modification time:	15. 06. 2019 20:31

#	Program:	/corina/corina34_cracker 3.40 0067  02.08.2006

@<TRIPOS>MOLECULE
ASD03091751
  30   32    0    0    0
SMALL
NO_CHARGES


@<TRIPOS>ATOM
   1 C1            -0.0188     1.5354     0.0105 C.3     
   2 C2             0.0021    -0.0041     0.0020 C.3     
   3 N3             0.0279    -0.4602     1.4021 N.3     
   4 C4             0.0781     0.7235     2.2834 C.3     
   5 C5            -0.5170     1.8802     1.4507 C.3     
   6 C6             0.2659     3.1734     1.7649 C.3     
   7 N7             1.5706     3.0168     1.1019 N.am    
   8 C8             1.4290     2.0576    -0.0005 C.3     
   9 C9             2.7084     3.6502     1.4495 C.2     
  10 O10            2.7100     4.4284     2.3845 O.2     
  11 C11            3.9475     3.4006     0.6986 C.2     
  12 O12            4.0760     2.5669    -0.3511 O.3     
  13 C13            5.1600     3.9801     0.9455 C.2     
  14 C14            6.0587     3.4659     0.0040 C.2     
  15 C15            5.3489     2.5896    -0.7867 C.2     
  16 C16            5.8747     1.8331    -1.8830 C.1     
  17 N17            6.2919     1.2330    -2.7527 N.1     
  18 H18           -0.6324     1.9593    -0.7844 H       
  19 H19           -0.8919    -0.3828    -0.4934 H       
  20 H20            0.8918    -0.3585    -0.5184 H       
  21 H21           -0.7764    -1.0325     1.6108 H       
  22 H22           -0.5221     0.5543     3.1774 H       
  23 H23            1.1093     0.9470     2.5570 H       
  24 H24           -1.5995     1.9734     1.5378 H       
  25 H25           -0.2598     4.0393     1.3624 H       
  26 H26            0.4006     3.2803     2.8412 H       
  27 H27            2.1216     1.2279     0.1411 H       
  28 H28            1.6353     2.5530    -0.9493 H       
  29 H29            5.3826     4.6987     1.7203 H       
  30 H30            7.1064     3.7116    -0.0872 H       
@<TRIPOS>BOND
   1    1    2 1
   2    1    8 1
   3    1    5 1
   4    1   18 1
   5    2    3 1
   6    2   19 1
   7    2   20 1
   8    3    4 1
   9    3   21 1
  10    4    5 1
  11    4   22 1
  12    4   23 1
  13    5    6 1
  14    5   24 1
  15    6    7 1
  16    6   25 1
  17    6   26 1
  18    7    8 1
  19    7    9 am
  20    8   27 1
  21    8   28 1
  22    9   10 2
  23    9   11 1
  24   11   12 1
  25   11   13 2
  26   12   15 1
  27   13   14 1
  28   13   29 1
  29   14   15 2
  30   14   30 1
  31   15   16 1
  32   16   17 3

#	End of record

