#	Name: ASD01152563
#	Creating user name:	WinNT
#	Creation time:	15. 06. 2019 19:06

#	Modifying user name:	WinNT
#	Modification time:	15. 06. 2019 19:06

#	Program:	/corina/corina34_cracker 3.40 0067  02.08.2006

@<TRIPOS>MOLECULE
ASD01152563
  49   51    0    0    0
SMALL
NO_CHARGES


@<TRIPOS>ATOM
   1 C1             0.3724     1.3389    -0.5592 C.2     
   2 N2             0.3928     0.0328    -0.5462 N.2     
   3 N3            -0.6721    -0.7099    -0.0366 N.am    
   4 C4            -1.8564    -0.1565     0.2729 C.2     
   5 C5            -2.1227     1.2974    -0.0386 C.3     
   6 C6            -0.7948     2.0306     0.0086 C.2     
   7 C7            -2.7411     1.4238    -1.4324 C.3     
   8 O8            -0.7031     3.1420     0.4878 O.2     
   9 C9            -0.5003    -2.0854     0.1596 C.ar    
  10 O10           -2.7156    -0.8272     0.8043 O.2     
  11 C11           -3.1166     2.8609    -1.6869 C.ar    
  12 C12           -1.4426    -2.9808    -0.3298 C.ar    
  13 C13            0.6157    -2.5570     0.8388 C.ar    
  14 C14            0.7835    -3.9141     1.0308 C.ar    
  15 C15           -0.1598    -4.8049     0.5461 C.ar    
  16 C16           -1.2709    -4.3371    -0.1356 C.ar    
  17 C17           -2.2035     3.7204    -2.2666 C.ar    
  18 C18           -4.3768     3.3163    -1.3452 C.ar    
  19 C19           -4.7250     4.6337    -1.5780 C.ar    
  20 C20           -2.5494     5.0430    -2.5012 C.ar    
  21 C21           -3.8134     5.4994    -2.1535 C.ar    
  22 Cl22          -4.2513     7.1534    -2.4469 Cl      
  23 F23            0.0064    -6.1323     0.7346 F       
  24 O24           -1.6527     5.8903    -3.0718 O.3     
  25 C25           -0.3322     5.3886    -3.2871 C.3     
  26 C26           -0.2781     4.6535    -4.6279 C.3     
  27 C27            0.6596     6.5535    -3.3037 C.3     
  28 O28            1.4102     2.0438    -1.0812 O.3     
  29 C29            2.5062     1.2919    -1.6062 C.3     
  30 H30           -2.7998     1.7164     0.7058 H       
  31 H31           -2.0187     1.0990    -2.1812 H       
  32 H32           -3.6324     0.7993    -1.4924 H       
  33 H33           -2.3092    -2.6164    -0.8615 H       
  34 H34            1.3519    -1.8628     1.2163 H       
  35 H35            1.6511    -4.2812     1.5589 H       
  36 H36           -2.0036    -5.0336    -0.5157 H       
  37 H37           -1.2208     3.3628    -2.5366 H       
  38 H38           -5.0903     2.6415    -0.8959 H       
  39 H39           -5.7100     4.9869    -1.3106 H       
  40 H40           -0.0699     4.6996    -2.4842 H       
  41 H41            0.7292     4.2708    -4.7921 H       
  42 H42           -0.9846     3.8236    -4.6160 H       
  43 H43           -0.5404     5.3425    -5.4307 H       
  44 H44            0.6211     7.0771    -2.3485 H       
  45 H45            1.6669     6.1708    -3.4679 H       
  46 H46            0.3973     7.2425    -4.1066 H       
  47 H47            2.9374     0.6779    -0.8155 H       
  48 H48            2.1530     0.6498    -2.4130 H       
  49 H49            3.2642     1.9745    -1.9904 H       
@<TRIPOS>BOND
   1    1    2 2
   2    1   28 1
   3    1    6 1
   4    2    3 1
   5    3    4 am
   6    3    9 1
   7    4    5 1
   8    4   10 2
   9    5    6 1
  10    5    7 1
  11    5   30 1
  12    6    8 2
  13    7   11 1
  14    7   31 1
  15    7   32 1
  16    9   12 ar
  17    9   13 ar
  18   11   17 ar
  19   11   18 ar
  20   12   16 ar
  21   12   33 1
  22   13   14 ar
  23   13   34 1
  24   14   15 ar
  25   14   35 1
  26   15   16 ar
  27   15   23 1
  28   16   36 1
  29   17   20 ar
  30   17   37 1
  31   18   19 ar
  32   18   38 1
  33   19   21 ar
  34   19   39 1
  35   20   24 1
  36   20   21 ar
  37   21   22 1
  38   24   25 1
  39   25   26 1
  40   25   27 1
  41   25   40 1
  42   26   41 1
  43   26   42 1
  44   26   43 1
  45   27   44 1
  46   27   45 1
  47   27   46 1
  48   28   29 1
  49   29   47 1
  50   29   48 1
  51   29   49 1

#	End of record

