#	Name: ASD01730004
#	Creating user name:	WinNT
#	Creation time:	15. 06. 2019 19:23

#	Modifying user name:	WinNT
#	Modification time:	15. 06. 2019 19:23

#	Program:	/corina/corina34_cracker 3.40 0067  02.08.2006

@<TRIPOS>MOLECULE
ASD01730004
  31   31    0    0    0
SMALL
NO_CHARGES


@<TRIPOS>ATOM
   1 C1             0.0017     1.4145    -0.2006 C.2     
   2 N2            -0.1781     0.0972    -0.5037 N.pl3   
   3 N3             1.2081     1.8887    -0.0393 N.2     
   4 C4            -1.1910     2.3244    -0.0578 C.3     
   5 S5             3.9573     1.5552     0.0118 S.3     
   6 C6             2.2755     1.0457    -0.0361 C.2     
   7 N7             2.1976    -0.2447    -0.0671 N.2     
   8 C8             3.3484    -0.9443    -0.0582 C.ar    
   9 C9             4.4827    -0.1264    -0.0151 C.ar    
  10 C10            3.5293    -2.3440    -0.0857 C.ar    
  11 C11            4.7902    -2.8836    -0.0699 C.ar    
  12 C12            5.9113    -2.0606    -0.0265 C.ar    
  13 C13            5.7569    -0.6878    -0.0004 C.ar    
  14 O14            7.1566    -2.6064    -0.0103 O.3     
  15 C15           -1.4249    -0.5763    -0.1321 C.3     
  16 C16            7.2402    -4.0326    -0.0396 C.3     
  17 F17            6.6352    -4.5113    -1.2066 F       
  18 F18            8.5839    -4.4215    -0.0177 F       
  19 F19            6.5835    -4.5614     1.0768 F       
  20 H20            0.5194    -0.3938    -0.9654 H       
  21 H21           -1.5292     2.3202     0.9784 H       
  22 H22           -0.9110     3.3381    -0.3444 H       
  23 H23           -1.9955     1.9732    -0.7040 H       
  24 H24            2.6682    -2.9950    -0.1191 H       
  25 H25            4.9139    -3.9563    -0.0909 H       
  26 H26            6.6268    -0.0485     0.0330 H       
  27 H27           -1.5178    -0.5954     0.9538 H       
  28 H28           -2.2704    -0.0375    -0.5597 H       
  29 H29           -1.4140    -1.5973    -0.5138 H       
  30 Cl30          13.5839     8.3381     6.0768 Cl      
  31 H31           13.5839     9.7081     6.0768 H       
@<TRIPOS>BOND
   1    1    2 1
   2    1    3 2
   3    1    4 1
   4    2   15 1
   5    2   20 1
   6    3    6 1
   7    4   21 1
   8    4   22 1
   9    4   23 1
  10    5    6 1
  11    5    9 1
  12    6    7 2
  13    7    8 1
  14    8    9 ar
  15    8   10 ar
  16    9   13 ar
  17   10   11 ar
  18   10   24 1
  19   11   12 ar
  20   11   25 1
  21   12   13 ar
  22   12   14 1
  23   13   26 1
  24   14   16 1
  25   15   27 1
  26   15   28 1
  27   15   29 1
  28   16   17 1
  29   16   18 1
  30   16   19 1
  31   30   31 1

#	End of record

