#	Name: ASD03091262
#	Creating user name:	WinNT
#	Creation time:	15. 06. 2019 20:30

#	Modifying user name:	WinNT
#	Modification time:	15. 06. 2019 20:30

#	Program:	/corina/corina34_cracker 3.40 0067  02.08.2006

@<TRIPOS>MOLECULE
ASD03091262
  61   65    0    0    0
SMALL
NO_CHARGES


@<TRIPOS>ATOM
   1 N1            -0.0741     1.3689    -0.0062 N.2     
   2 C2            -0.1133     0.0620     0.0041 C.2     
   3 N3             1.0108    -0.7190     0.0217 N.am    
   4 C4             2.2392    -0.1509     0.0291 C.2     
   5 C5             2.3074     1.3180     0.0171 C.ar    
   6 C6             3.5241     1.9962     0.0230 C.ar    
   7 C7             3.5296     3.3809     0.0107 C.ar    
   8 C8             2.3294     4.0917    -0.0074 C.ar    
   9 C9             1.1294     3.4409    -0.0134 C.ar    
  10 C10            1.0939     2.0430    -0.0007 C.ar    
  11 O11            3.2493    -0.8301     0.0454 O.2     
  12 C12           -1.4332    -0.6033    -0.0029 C.ar    
  13 C13           -1.7563    -1.5305     0.9896 C.ar    
  14 C14           -3.9063    -1.8492    -0.0158 C.ar    
  15 C15           -2.3641    -0.3030    -0.9984 C.ar    
  16 C16           -2.9900    -2.1473     0.9775 C.ar    
  17 C17           -3.5946    -0.9272    -0.9989 C.ar    
  18 C18           -3.3405    -3.1484     2.0480 C.3     
  19 C19            0.8834    -2.1784     0.0329 C.3     
  20 C20            0.7040    -2.6858    -1.3993 C.3     
  21 O21            1.8882    -2.4155    -2.1522 O.3     
  22 C22            1.8250    -2.8520    -3.5114 C.3     
  23 N23            7.5171     4.7087    -0.8068 N.3     
  24 C24            7.1969     3.8664     0.3557 C.3     
  25 C25            5.8753     3.1433     0.1474 C.3     
  26 N26            4.7450     4.0706     0.0170 N.3     
  27 C27            4.8887     4.8956    -1.1907 C.3     
  28 C28            5.5628     6.2172    -0.8537 C.3     
  29 C29            7.0466     6.0822    -0.5770 C.3     
  30 C30            7.1288     4.1892    -2.1005 C.3     
  31 C31            5.6196     4.0974    -2.2548 C.3     
  32 H32            4.4542     1.4474     0.0374 H       
  33 H33            2.3498     5.1714    -0.0165 H       
  34 H34            0.2085     4.0049    -0.0271 H       
  35 H35           -1.0418    -1.7645     1.7649 H       
  36 H36           -4.8707    -2.3353    -0.0209 H       
  37 H37           -2.1220     0.4167    -1.7665 H       
  38 H38           -4.3142    -0.6991    -1.7713 H       
  39 H39           -3.8087    -2.6340     2.8872 H       
  40 H40           -4.0325    -3.8865     1.6425 H       
  41 H41           -2.4340    -3.6487     2.3884 H       
  42 H42            1.7825    -2.6183     0.4643 H       
  43 H43            0.0172    -2.4629     0.6303 H       
  44 H44            0.5206    -3.7601    -1.3839 H       
  45 H45           -0.1435    -2.1791    -1.8608 H       
  46 H46            2.7614    -2.6105    -4.0145 H       
  47 H47            1.6649    -3.9298    -3.5398 H       
  48 H48            1.0007    -2.3487    -4.0167 H       
  49 H49            7.9898     3.1318     0.4962 H       
  50 H50            7.1271     4.4929     1.2448 H       
  51 H51            5.9423     2.5389    -0.7572 H       
  52 H52            5.6955     2.4848     0.9972 H       
  53 H53            3.8906     5.1122    -1.5717 H       
  54 H54            5.4241     6.9033    -1.6892 H       
  55 H55            5.0802     6.6410     0.0269 H       
  56 H56            7.2416     6.3564     0.4598 H       
  57 H57            7.5938     6.7601    -1.2320 H       
  58 H58            7.5244     4.8434    -2.8774 H       
  59 H59            7.5580     3.1951    -2.2256 H       
  60 H60            5.3190     3.0522    -2.1826 H       
  61 H61            5.3401     4.4777    -3.2373 H       
@<TRIPOS>BOND
   1    1    2 2
   2    1   10 1
   3    2    3 1
   4    2   12 1
   5    3    4 am
   6    3   19 1
   7    4    5 1
   8    4   11 2
   9    5    6 ar
  10    5   10 ar
  11    6    7 ar
  12    6   32 1
  13    7    8 ar
  14    7   26 1
  15    8    9 ar
  16    8   33 1
  17    9   10 ar
  18    9   34 1
  19   12   13 ar
  20   12   15 ar
  21   13   16 ar
  22   13   35 1
  23   14   16 ar
  24   14   17 ar
  25   14   36 1
  26   15   17 ar
  27   15   37 1
  28   16   18 1
  29   17   38 1
  30   18   39 1
  31   18   40 1
  32   18   41 1
  33   19   20 1
  34   19   42 1
  35   19   43 1
  36   20   21 1
  37   20   44 1
  38   20   45 1
  39   21   22 1
  40   22   46 1
  41   22   47 1
  42   22   48 1
  43   23   24 1
  44   23   29 1
  45   23   30 1
  46   24   25 1
  47   24   49 1
  48   24   50 1
  49   25   26 1
  50   25   51 1
  51   25   52 1
  52   26   27 1
  53   27   28 1
  54   27   31 1
  55   27   53 1
  56   28   29 1
  57   28   54 1
  58   28   55 1
  59   29   56 1
  60   29   57 1
  61   30   31 1
  62   30   58 1
  63   30   59 1
  64   31   60 1
  65   31   61 1

#	End of record

