#	Name: ASD00190043
#	Creating user name:	WinNT
#	Creation time:	15. 06. 2019 18:33

#	Modifying user name:	WinNT
#	Modification time:	15. 06. 2019 18:33

#	Program:	/corina/corina34_cracker 3.40 0067  02.08.2006

@<TRIPOS>MOLECULE
ASD00190043
  51   55    0    0    0
SMALL
NO_CHARGES


@<TRIPOS>ATOM
   1 C1            -0.0154     1.3889     0.0329 C.ar    
   2 C2             0.0026    -0.0011     0.0114 C.ar    
   3 C3             1.1801    -0.6877    -0.0102 C.ar    
   4 C4             2.3964     0.0123    -0.0114 C.ar    
   5 C5             2.3718     1.4268     0.0100 C.ar    
   6 C6             1.1497     2.1010     0.0324 C.ar    
   7 N7             3.5674    -0.6415    -0.0320 N.ar    
   8 C8             4.7273    -0.0214    -0.0334 C.ar    
   9 C9             4.8189     1.3796    -0.0128 C.ar    
  10 C10            3.6478     2.1440     0.0085 C.ar    
  11 N11            5.8587     2.2833    -0.0080 N.pl3   
  12 C12            5.3154     3.5207     0.0160 C.2     
  13 N13            4.0133     3.4342     0.0255 N.2     
  14 N14            5.8931    -0.7726    -0.0555 N.pl3   
  15 C15            5.8289    -2.1658     0.0437 C.ar    
  16 C16            6.7405    -2.9549    -0.6458 C.ar    
  17 C17            6.6753    -4.3311    -0.5465 C.ar    
  18 C18            5.7028    -4.9243     0.2385 C.ar    
  19 C19            4.7921    -4.1402     0.9275 C.ar    
  20 C20            4.8569    -2.7628     0.8364 C.ar    
  21 Cl21           3.5728    -4.8881     1.9112 Cl      
  22 Cl22           5.6233    -6.6542     0.3599 Cl      
  23 C23            7.3165     4.6291     0.8933 C.3     
  24 C24            7.6037     5.9597     1.6187 C.3     
  25 C25            8.2919     6.9185     0.7671 C.3     
  26 C26            7.4569     7.3131    -0.4683 C.3     
  27 C27            7.5902     6.2277    -1.5019 C.3     
  28 C28            6.4525     5.1921    -1.4194 C.3     
  29 C29            6.0973     4.8089     0.0299 C.3     
  30 H30           -0.9608     1.9110     0.0457 H       
  31 H31           -0.9304    -0.5451     0.0122 H       
  32 H32            1.1769    -1.7676    -0.0261 H       
  33 H33            1.1258     3.1806     0.0492 H       
  34 H34            6.8051     2.0709    -0.0195 H       
  35 H35            6.7528    -0.3315    -0.1396 H       
  36 H36            7.4996    -2.4928    -1.2595 H       
  37 H37            7.3841    -4.9448    -1.0826 H       
  38 H38            4.1469    -2.1514     1.3735 H       
  39 H39            8.1697     4.3600     0.2706 H       
  40 H40            7.1331     3.8442     1.6270 H       
  41 H41            6.6593     6.3935     1.9473 H       
  42 H42            8.2211     5.7583     2.4941 H       
  43 H43            8.5081     7.8151     1.3480 H       
  44 H44            9.2328     6.4817     0.4323 H       
  45 H45            6.4103     7.4209    -0.1835 H       
  46 H46            7.8273     8.2539    -0.8753 H       
  47 H47            7.5827     6.6817    -2.4929 H       
  48 H48            8.5426     5.7177    -1.3570 H       
  49 H49            5.5661     5.6045    -1.9013 H       
  50 H50            6.7557     4.2933    -1.9564 H       
  51 H51            5.4752     5.5939     0.4598 H       
@<TRIPOS>BOND
   1    1    2 ar
   2    1    6 ar
   3    1   30 1
   4    2    3 ar
   5    2   31 1
   6    3    4 ar
   7    3   32 1
   8    4    5 ar
   9    4    7 ar
  10    5    6 ar
  11    5   10 ar
  12    6   33 1
  13    7    8 ar
  14    8    9 ar
  15    8   14 1
  16    9   10 ar
  17    9   11 1
  18   10   13 1
  19   11   12 1
  20   11   34 1
  21   12   13 2
  22   12   29 1
  23   14   15 1
  24   14   35 1
  25   15   16 ar
  26   15   20 ar
  27   16   17 ar
  28   16   36 1
  29   17   18 ar
  30   17   37 1
  31   18   19 ar
  32   18   22 1
  33   19   20 ar
  34   19   21 1
  35   20   38 1
  36   23   24 1
  37   23   29 1
  38   23   39 1
  39   23   40 1
  40   24   25 1
  41   24   41 1
  42   24   42 1
  43   25   26 1
  44   25   43 1
  45   25   44 1
  46   26   27 1
  47   26   45 1
  48   26   46 1
  49   27   28 1
  50   27   47 1
  51   27   48 1
  52   28   29 1
  53   28   49 1
  54   28   50 1
  55   29   51 1

#	End of record

