#	Name: ASD03470005
#	Creating user name:	WinNT
#	Creation time:	15. 06. 2019 20:42

#	Modifying user name:	WinNT
#	Modification time:	15. 06. 2019 20:42

#	Program:	/corina/corina34_cracker 3.40 0067  02.08.2006

@<TRIPOS>MOLECULE
ASD03470005
 158  155    0    0    0
SMALL
NO_CHARGES


@<TRIPOS>ATOM
   1 N1             4.3386    -6.3047     1.1636 N.am    
   2 C2             4.8065    -7.3427     0.2419 C.3     
   3 C3             3.9522    -8.6003     0.4138 C.3     
   4 O4             2.6080    -8.3209     0.0175 O.3     
   5 C5             7.6065    12.5765    -2.0329 C.3     
   6 C6             8.0069    11.1719    -1.6618 C.2     
   7 O7             9.1767    10.8519    -1.6724 O.2     
   8 C8             8.8563    13.3888    -2.3780 C.3     
   9 C9             8.4498    14.8149    -2.7547 C.3     
  10 C10            9.6996    15.6271    -3.0999 C.3     
  11 C11            9.2931    17.0532    -3.4766 C.3     
  12 N12           10.4931    17.8331    -3.8080 N.3     
  13 N13            7.0650    10.2712    -1.3182 N.am    
  14 C14            7.4409     8.8775    -1.0679 C.3     
  15 C15            6.5389     8.2963    -0.0097 C.2     
  16 O16            5.6345     8.9618     0.4486 O.2     
  17 C17            7.2973     8.0706    -2.3598 C.3     
  18 C18            5.8898     8.2634    -2.9278 C.3     
  19 C19            8.3297     8.5538    -3.3803 C.3     
  20 C20            4.8710     7.5913    -2.0052 C.3     
  21 N21            6.7373     7.0369     0.4274 N.am    
  22 C22            5.7926     6.4309     1.3689 C.3     
  23 C23            5.3727     5.0769     0.8577 C.2     
  24 O24            5.8187     4.6592    -0.1899 O.2     
  25 C25            6.4634     6.2748     2.7351 C.3     
  26 C26            6.7975     7.6358     3.2892 C.2     
  27 O27            6.5605     8.6271     2.6403 O.2     
  28 O28            7.3585     7.7468     4.5036 O.3     
  29 N29            4.5015     4.3301     1.5647 N.am    
  30 C30            4.0088     3.0640     1.0166 C.3     
  31 C31            4.9406     1.9482     1.4138 C.2     
  32 O32            5.9199     2.1870     2.0883 O.2     
  33 C33            2.6097     2.7802     1.5668 C.3     
  34 C34            1.6697     3.8779     1.1395 C.2     
  35 N35            0.4032     3.8977     1.5999 N.am    
  36 O36            2.0530     4.7435     0.3814 O.2     
  37 N37            4.6858     0.6848     1.0195 N.am    
  38 C38            5.5281    -0.4152     1.4957 C.3     
  39 C39            4.7174    -1.6847     1.5423 C.2     
  40 O40            3.5561    -1.6758     1.1929 O.2     
  41 C41            6.7115    -0.6004     0.5438 C.3     
  42 C42            6.1962    -0.7327    -0.8907 C.3     
  43 C43            7.3778    -0.6989    -1.8622 C.3     
  44 C44            5.4480    -2.0584    -1.0436 C.3     
  45 N45            5.2830    -2.8300     1.9722 N.am    
  46 C46            4.4650    -4.0341     2.1369 C.3     
  47 C47            4.9464    -5.1020     1.1888 C.2     
  48 O48            5.8808    -4.8792     0.4484 O.2     
  49 C49            4.5843    -4.5388     3.5764 C.3     
  50 C50            4.0609    -3.4884     4.5219 C.2     
  51 O51            4.1713    -3.6643     5.8480 O.3     
  52 O52            3.5420    -2.4880     4.0862 O.2     
  53 H53            3.5887    -6.4815     1.7529 H       
  54 H54            4.7216    -6.9832    -0.7836 H       
  55 H55            5.8483    -7.5787     0.4590 H       
  56 H56            4.3550    -9.4008    -0.2067 H       
  57 H57            3.9662    -8.9088     1.4592 H       
  58 H58            2.0087    -9.0752     0.1004 H       
  59 H59            6.9414    12.5487    -2.8960 H       
  60 H60            7.0916    13.0416    -1.1922 H       
  61 H61            9.5214    13.4165    -1.5149 H       
  62 H62            9.3712    12.9237    -3.2187 H       
  63 H63            7.7847    14.7871    -3.6179 H       
  64 H64            7.9349    15.2800    -1.9141 H       
  65 H65           10.3647    15.6549    -2.2368 H       
  66 H66           10.2145    15.1620    -3.9405 H       
  67 H67            8.6280    17.0254    -4.3397 H       
  68 H68            8.7782    17.5183    -2.6360 H       
  69 H69           11.0227    17.3873    -4.5420 H       
  70 H70           10.2509    18.7795    -4.0604 H       
  71 H71            6.1382    10.5457    -1.2367 H       
  72 H72            8.4752     8.8359    -0.7265 H       
  73 H73            7.4622     7.0140    -2.1485 H       
  74 H74            5.6691     9.3285    -2.9980 H       
  75 H75            5.8335     7.8145    -3.9195 H       
  76 H76            9.3332     8.3543    -3.0043 H       
  77 H77            8.1833     8.0263    -4.3229 H       
  78 H78            8.2081     9.6250    -3.5408 H       
  79 H79            3.9033     7.5451    -2.5048 H       
  80 H80            5.2061     6.5815    -1.7682 H       
  81 H81            4.7777     8.1684    -1.0852 H       
  82 H82            7.5057     6.5318     0.1186 H       
  83 H83            4.9154     7.0707     1.4658 H       
  84 H84            5.7848     5.7617     3.4165 H       
  85 H85            7.3781     5.6922     2.6263 H       
  86 H86            7.5547     8.6405     4.8165 H       
  87 H87            4.2008     4.6309     2.4364 H       
  88 H88            3.9651     3.1312    -0.0705 H       
  89 H89            2.2536     1.8257     1.1792 H       
  90 H90            2.6488     2.7385     2.6553 H       
  91 H91            0.0967     3.2054     2.2063 H       
  92 H92           -0.2018     4.6043     1.3250 H       
  93 H93            3.9447     0.5039     0.4203 H       
  94 H94            5.8980    -0.1834     2.4945 H       
  95 H95            7.3729     0.2632     0.6141 H       
  96 H96            7.2602    -1.5016     0.8173 H       
  97 H97            5.5205     0.0935    -1.1117 H       
  98 H98            8.0536    -1.5251    -1.6412 H       
  99 H99            7.0107    -0.7932    -2.8842 H       
 100 H100           7.9109     0.2456    -1.7532 H       
 101 H101           5.2544    -2.2467    -2.0997 H       
 102 H102           6.0544    -2.8671    -0.6356 H       
 103 H103           4.5021    -2.0060    -0.5046 H       
 104 H104           6.2317    -2.8570     2.1726 H       
 105 H105           3.4233    -3.7982     1.9198 H       
 106 H106           4.0017    -5.4529     3.6904 H       
 107 H107           5.6303    -4.7438     3.8040 H       
 108 H108           3.8210    -2.9632     6.4145 H       
 109 C109          16.9653    24.9922    11.4325 C.2     
 110 O110          16.9817    23.7795    11.4258 O.2     
 111 N111          18.1232    25.6819    11.4251 N.am    
 112 H112          16.0227    25.5194    11.4398 H       
 113 H113          18.9697    25.2083    11.4145 H       
 114 H114          18.1100    26.6518    11.4305 H       
 115 N115          24.9692    33.4982    17.3774 N.3     
 116 C116          24.9891    32.0294    17.3693 C.3     
 117 H117          25.9062    33.8726    17.3705 H       
 118 H118          24.4308    33.8568    16.6031 H       
 119 H119          23.9697    31.6518    17.4479 H       
 120 H120          25.4364    31.6772    16.4398 H       
 121 H121          25.5761    31.6693    18.2143 H       
 122 C122          35.7087    46.1139    25.7447 C.3     
 123 C123          37.1440    46.6435    25.7339 C.3     
 124 C124          37.2352    48.1755    25.8124 C.3     
 125 O125          37.7789    46.6106    27.0221 O.3     
 126 O126          38.3448    47.9340    26.6923 O.3     
 127 C127          35.7294    44.5841    25.7363 C.3     
 128 C128          31.4591    39.9583    25.3754 C.3     
 129 C129          34.2940    44.0545    25.7472 C.3     
 130 C130          32.8944    40.4879    25.3645 C.3     
 131 C131          34.3117    42.5305    25.6131 C.3     
 132 C132          33.6171    44.4429    27.0631 C.3     
 133 C133          33.5714    40.0995    24.0485 C.3     
 134 C134          32.8768    42.0119    25.4986 C.3     
 135 N135          37.9596    46.0583    24.6612 N.3     
 136 H136          35.1985    46.4654    26.6415 H       
 137 H137          35.1815    46.4750    24.8616 H       
 138 H138          37.5113    48.6516    24.8716 H       
 139 H139          36.3797    48.6458    26.2972 H       
 140 H140          36.2396    44.2326    24.8395 H       
 141 H141          36.2566    44.2230    26.6194 H       
 142 H142          31.4716    38.8726    25.2798 H       
 143 H143          30.9768    40.2350    26.3129 H       
 144 H144          30.9062    40.3901    24.5411 H       
 145 H145          33.7411    44.4862    24.9129 H       
 146 H146          33.4473    40.0562    26.1988 H       
 147 H147          34.8714    42.2507    24.7206 H       
 148 H148          34.7868    42.0939    26.4916 H       
 149 H149          33.6045    45.5286    27.1587 H       
 150 H150          32.5945    44.0656    27.0709 H       
 151 H151          34.1700    44.0111    27.8974 H       
 152 H152          33.0185    40.5313    23.2143 H       
 153 H153          34.5940    40.4768    24.0408 H       
 154 H154          33.5840    39.0138    23.9530 H       
 155 H155          32.4017    42.4485    24.6200 H       
 156 H156          32.3171    42.2917    26.3911 H       
 157 H157          38.8990    46.4261    24.6796 H       
 158 H158          37.9644    45.0510    24.7192 H       
@<TRIPOS>BOND
   1    1    2 1
   2    1   47 am
   3    1   53 1
   4    2    3 1
   5    2   54 1
   6    2   55 1
   7    3    4 1
   8    3   56 1
   9    3   57 1
  10    4   58 1
  11    5    6 1
  12    5    8 1
  13    5   59 1
  14    5   60 1
  15    6    7 2
  16    6   13 am
  17    8    9 1
  18    8   61 1
  19    8   62 1
  20    9   10 1
  21    9   63 1
  22    9   64 1
  23   10   11 1
  24   10   65 1
  25   10   66 1
  26   11   12 1
  27   11   67 1
  28   11   68 1
  29   12   69 1
  30   12   70 1
  31   13   14 1
  32   13   71 1
  33   14   17 1
  34   14   15 1
  35   14   72 1
  36   15   21 am
  37   15   16 2
  38   17   18 1
  39   17   19 1
  40   17   73 1
  41   18   20 1
  42   18   74 1
  43   18   75 1
  44   19   76 1
  45   19   77 1
  46   19   78 1
  47   20   79 1
  48   20   80 1
  49   20   81 1
  50   21   22 1
  51   21   82 1
  52   22   25 1
  53   22   23 1
  54   22   83 1
  55   23   29 am
  56   23   24 2
  57   25   26 1
  58   25   84 1
  59   25   85 1
  60   26   27 2
  61   26   28 1
  62   28   86 1
  63   29   30 1
  64   29   87 1
  65   30   31 1
  66   30   33 1
  67   30   88 1
  68   31   32 2
  69   31   37 am
  70   33   34 1
  71   33   89 1
  72   33   90 1
  73   34   35 am
  74   34   36 2
  75   35   91 1
  76   35   92 1
  77   37   38 1
  78   37   93 1
  79   38   39 1
  80   38   41 1
  81   38   94 1
  82   39   40 2
  83   39   45 am
  84   41   42 1
  85   41   95 1
  86   41   96 1
  87   42   44 1
  88   42   43 1
  89   42   97 1
  90   43   98 1
  91   43   99 1
  92   43  100 1
  93   44  101 1
  94   44  102 1
  95   44  103 1
  96   45   46 1
  97   45  104 1
  98   46   47 1
  99   46   49 1
 100   46  105 1
 101   47   48 2
 102   49   50 1
 103   49  106 1
 104   49  107 1
 105   50   51 1
 106   50   52 2
 107   51  108 1
 108  109  110 2
 109  109  111 am
 110  109  112 1
 111  111  113 1
 112  111  114 1
 113  115  116 1
 114  115  117 1
 115  115  118 1
 116  116  119 1
 117  116  120 1
 118  116  121 1
 119  122  127 1
 120  122  123 1
 121  122  136 1
 122  122  137 1
 123  123  125 1
 124  123  124 1
 125  123  135 1
 126  124  126 1
 127  124  138 1
 128  124  139 1
 129  125  126 1
 130  127  129 1
 131  127  140 1
 132  127  141 1
 133  128  130 1
 134  128  142 1
 135  128  143 1
 136  128  144 1
 137  129  132 1
 138  129  131 1
 139  129  145 1
 140  130  133 1
 141  130  134 1
 142  130  146 1
 143  131  134 1
 144  131  147 1
 145  131  148 1
 146  132  149 1
 147  132  150 1
 148  132  151 1
 149  133  152 1
 150  133  153 1
 151  133  154 1
 152  134  155 1
 153  134  156 1
 154  135  157 1
 155  135  158 1

#	End of record

