#	Name: ASD01150715
#	Creating user name:	WinNT
#	Creation time:	15. 06. 2019 19:04

#	Modifying user name:	WinNT
#	Modification time:	15. 06. 2019 19:04

#	Program:	/corina/corina34_cracker 3.40 0067  02.08.2006

@<TRIPOS>MOLECULE
ASD01150715
  30   31    0    0    0
SMALL
NO_CHARGES


@<TRIPOS>ATOM
   1 C1            -0.0421     1.1921     0.0129 C.2     
   2 O2             0.6612     1.2330    -0.9784 O.2     
   3 C3             0.3956     0.4259     1.1980 C.ar    
   4 C4             1.5596    -0.3447     1.1442 C.ar    
   5 C5             1.9628    -1.0578     2.2542 C.ar    
   6 C6             1.2148    -1.0107     3.4209 C.ar    
   7 C7             0.0600    -0.2486     3.4792 C.ar    
   8 C8            -0.3496     0.4738     2.3782 C.ar    
   9 Cl9            1.7278    -1.9110     4.8137 Cl      
  10 Cl10           3.4089    -2.0163     2.1901 Cl      
  11 C11           -1.3276     1.9114     0.0344 C.ar    
  12 C12           -2.5347     1.2046    -0.0924 C.ar    
  13 C13           -3.7411     1.8921    -0.0704 C.ar    
  14 C14           -3.7540     3.2641     0.0754 C.ar    
  15 C15           -2.5625     3.9694     0.2009 C.ar    
  16 C16           -1.3533     3.3011     0.1869 C.ar    
  17 O17           -2.5875     5.3217     0.3436 O.3     
  18 C18           -3.8713     5.9491     0.3559 C.3     
  19 F19           -4.6267     5.4447     1.4200 F       
  20 F20           -3.7138     7.3306     0.5095 F       
  21 F21           -4.5305     5.6860    -0.8498 F       
  22 N22           -2.5218    -0.1778    -0.2397 N.pl3   
  23 H23            2.1422    -0.3824     0.2356 H       
  24 H24           -0.5186    -0.2162     4.3906 H       
  25 H25           -1.2478     1.0714     2.4270 H       
  26 H26           -4.6711     1.3517    -0.1680 H       
  27 H27           -4.6953     3.7934     0.0918 H       
  28 H28           -0.4296     3.8514     0.2895 H       
  29 H29           -1.6783    -0.6481    -0.3300 H       
  30 H30           -3.3564    -0.6720    -0.2523 H       
@<TRIPOS>BOND
   1    1    2 2
   2    1    3 1
   3    1   11 1
   4    3    4 ar
   5    3    8 ar
   6    4    5 ar
   7    4   23 1
   8    5    6 ar
   9    5   10 1
  10    6    7 ar
  11    6    9 1
  12    7    8 ar
  13    7   24 1
  14    8   25 1
  15   11   12 ar
  16   11   16 ar
  17   12   13 ar
  18   12   22 1
  19   13   14 ar
  20   13   26 1
  21   14   15 ar
  22   14   27 1
  23   15   16 ar
  24   15   17 1
  25   16   28 1
  26   17   18 1
  27   18   19 1
  28   18   20 1
  29   18   21 1
  30   22   29 1
  31   22   30 1

#	End of record

