#	Name: ASD01884137
#	Creating user name:	WinNT
#	Creation time:	15. 06. 2019 19:47

#	Modifying user name:	WinNT
#	Modification time:	15. 06. 2019 19:47

#	Program:	/corina/corina34_cracker 3.40 0067  02.08.2006

@<TRIPOS>MOLECULE
ASD01884137
  41   43    0    0    0
SMALL
NO_CHARGES


@<TRIPOS>ATOM
   1 C1            -0.0170     1.4038     0.0098 C.ar    
   2 C2             0.0021    -0.0041     0.0020 C.ar    
   3 C3            -1.2181    -0.6793     0.0100 C.ar    
   4 C4            -2.3914     0.0434     0.0250 C.ar    
   5 N5            -2.3849     1.3645     0.0316 N.ar    
   6 C6            -1.2590     2.0604     0.0310 C.ar    
   7 N7            -1.3055     3.4437     0.0381 N.pl3   
   8 C8             1.2045     2.1511     0.0021 C.1     
   9 N9             2.1735     2.7439    -0.0040 N.1     
  10 N10            1.2008    -0.6998    -0.0136 N.3     
  11 C11            1.3235    -1.5632     1.1679 C.3     
  12 C12            2.7139    -2.2021     1.1923 C.3     
  13 C13            2.9161    -3.0217    -0.0852 C.3     
  14 C14            2.7353    -2.1094    -1.3015 C.3     
  15 C15            1.3442    -1.4732    -1.2536 C.3     
  16 N16           -2.5107     4.0865     0.0457 N.3     
  17 C17            4.3059    -3.6045    -0.0949 C.ar    
  18 C18            4.4803    -4.9750    -0.1410 C.ar    
  19 C19            5.7551    -5.5095    -0.1499 C.ar    
  20 C20            6.8554    -4.6736    -0.1132 C.ar    
  21 C21            6.6810    -3.3030    -0.0680 C.ar    
  22 C22            5.4062    -2.7683    -0.0634 C.ar    
  23 H23           -1.2434    -1.7590     0.0041 H       
  24 H24           -3.3356    -0.4809     0.0312 H       
  25 H25           -0.4822     3.9567     0.0377 H       
  26 H26            1.1818    -0.9673     2.0695 H       
  27 H27            0.5652    -2.3451     1.1267 H       
  28 H28            3.4723    -1.4211     1.2474 H       
  29 H29            2.7992    -2.8550     2.0609 H       
  30 H30            2.1823    -3.8268    -0.1214 H       
  31 H31            3.4940    -1.3270    -1.2856 H       
  32 H32            2.8359    -2.6961    -2.2146 H       
  33 H33            0.5859    -2.2556    -1.2835 H       
  34 H34            1.2176    -0.8119    -2.1108 H       
  35 H35           -3.0745     3.7886     0.8277 H       
  36 H36           -2.3865     5.0878     0.0503 H       
  37 H37            3.6207    -5.6281    -0.1697 H       
  38 H38            5.8914    -6.5803    -0.1852 H       
  39 H39            7.8514    -5.0912    -0.1194 H       
  40 H40            7.5406    -2.6499    -0.0389 H       
  41 H41            5.2699    -1.6974    -0.0319 H       
@<TRIPOS>BOND
   1    1    2 ar
   2    1    8 1
   3    1    6 ar
   4    2    3 ar
   5    2   10 1
   6    3    4 ar
   7    3   23 1
   8    4    5 ar
   9    4   24 1
  10    5    6 ar
  11    6    7 1
  12    7   16 1
  13    7   25 1
  14    8    9 3
  15   10   11 1
  16   10   15 1
  17   11   12 1
  18   11   26 1
  19   11   27 1
  20   12   13 1
  21   12   28 1
  22   12   29 1
  23   13   14 1
  24   13   17 1
  25   13   30 1
  26   14   15 1
  27   14   31 1
  28   14   32 1
  29   15   33 1
  30   15   34 1
  31   16   35 1
  32   16   36 1
  33   17   18 ar
  34   17   22 ar
  35   18   19 ar
  36   18   37 1
  37   19   20 ar
  38   19   38 1
  39   20   21 ar
  40   20   39 1
  41   21   22 ar
  42   21   40 1
  43   22   41 1

#	End of record

