#	Name: ASD01410815
#	Creating user name:	WinNT
#	Creation time:	15. 06. 2019 19:18

#	Modifying user name:	WinNT
#	Modification time:	15. 06. 2019 19:18

#	Program:	/corina/corina34_cracker 3.40 0067  02.08.2006

@<TRIPOS>MOLECULE
ASD01410815
  62   62    0    0    0
SMALL
NO_CHARGES


@<TRIPOS>ATOM
   1 C1            -0.1024     1.6231     0.0785 C.3     
   2 C2            -0.0606     0.0805     0.0771 C.3     
   3 N3            -0.1908    -0.3609     1.4735 N.am    
   4 C4            -0.2850     0.8290     2.3386 C.3     
   5 C5            -0.8215     1.9501     1.4139 C.3     
   6 C6             1.2713    -0.4035    -0.4995 C.3     
   7 C7             1.3543    -0.0272    -1.9565 C.2     
   8 O8             2.2499     0.6827    -2.3467 O.2     
   9 C9            -1.2465     0.5789     3.4717 C.2     
  10 O10           -2.0494    -0.3208     3.3953 O.2     
  11 O11           -1.2110     1.3556     4.5659 O.3     
  12 C12           -2.1665     1.0568     5.6177 C.3     
  13 Si13           1.3401     3.6108    -0.6743 Si      
  14 C14            3.1074     4.1967    -0.6115 C.3     
  15 C15            0.2451     4.8466     0.1886 C.3     
  16 C16            0.8049     3.4408    -2.4506 C.3     
  17 C17            3.5469     4.3363     0.8474 C.3     
  18 C18            4.0067     3.1818    -1.3201 C.3     
  19 C19            3.2201     5.5532    -1.3101 C.3     
  20 O20            1.2199     2.1647     0.0705 O.3     
  21 O21           -0.2322    -1.9180     3.2106 O.3     
  22 C22           -0.2637    -3.3192     3.5898 C.3     
  23 C23            0.9735    -4.0263     3.0327 C.3     
  24 C24           -0.2735    -3.4347     5.1154 C.3     
  25 C25           -1.5244    -3.9733     3.0207 C.3     
  26 C26           -0.2200    -1.6414     1.8930 C.2     
  27 O27           -0.2353    -2.5462     1.0821 O.2     
  28 H28           -0.6747     1.9942    -0.7717 H       
  29 H29           -0.8876    -0.3122    -0.5144 H       
  30 H30            0.6984     1.0951     2.7262 H       
  31 H31           -0.5311     2.9336     1.7834 H       
  32 H32           -1.9035     1.8802     1.3023 H       
  33 H33            2.0933     0.0629     0.0436 H       
  34 H34            1.3383    -1.4868    -0.3997 H       
  35 H35            0.6128    -0.3924    -2.6516 H       
  36 H36           -3.1793     1.1494     5.2255 H       
  37 H37           -2.0069     0.0396     5.9753 H       
  38 H38           -2.0305     1.7571     6.4417 H       
  39 H39            0.3254     5.8130    -0.3091 H       
  40 H40           -0.7889     4.5038     0.1519 H       
  41 H41            0.5582     4.9461     1.2280 H       
  42 H42            1.4456     2.7178    -2.9555 H       
  43 H43           -0.2291     3.0980    -2.4874 H       
  44 H44            0.8852     4.4072    -2.9483 H       
  45 H45            3.4666     3.3699     1.3451 H       
  46 H46            4.5810     4.6791     0.8841 H       
  47 H47            2.9063     5.0594     1.3522 H       
  48 H48            3.6936     3.0824    -2.3595 H       
  49 H49            5.0407     3.5246    -1.2834 H       
  50 H50            3.9264     2.2154    -0.8224 H       
  51 H51            2.5795     6.2763    -0.8052 H       
  52 H52            4.2542     5.8961    -1.2734 H       
  53 H53            2.9070     5.4538    -2.3494 H       
  54 H54            1.8716    -3.5603     3.4381 H       
  55 H55            0.9498    -5.0782     3.3174 H       
  56 H56            0.9804    -3.9440     1.9459 H       
  57 H57           -1.1549    -2.9310     5.5122 H       
  58 H58           -0.2972    -4.4866     5.4000 H       
  59 H59            0.6246    -2.9687     5.5208 H       
  60 H60           -1.5175    -3.8911     1.9339 H       
  61 H61           -1.5481    -5.0252     3.3054 H       
  62 H62           -2.4058    -3.4696     3.4176 H       
@<TRIPOS>BOND
   1    1    2 1
   2    1   20 1
   3    1    5 1
   4    1   28 1
   5    2    3 1
   6    2    6 1
   7    2   29 1
   8    3    4 1
   9    3   26 am
  10    4    5 1
  11    4    9 1
  12    4   30 1
  13    5   31 1
  14    5   32 1
  15    6    7 1
  16    6   33 1
  17    6   34 1
  18    7    8 2
  19    7   35 1
  20    9   10 2
  21    9   11 1
  22   11   12 1
  23   12   36 1
  24   12   37 1
  25   12   38 1
  26   13   14 1
  27   13   15 1
  28   13   16 1
  29   13   20 1
  30   14   17 1
  31   14   18 1
  32   14   19 1
  33   15   39 1
  34   15   40 1
  35   15   41 1
  36   16   42 1
  37   16   43 1
  38   16   44 1
  39   17   45 1
  40   17   46 1
  41   17   47 1
  42   18   48 1
  43   18   49 1
  44   18   50 1
  45   19   51 1
  46   19   52 1
  47   19   53 1
  48   21   22 1
  49   21   26 1
  50   22   23 1
  51   22   24 1
  52   22   25 1
  53   23   54 1
  54   23   55 1
  55   23   56 1
  56   24   57 1
  57   24   58 1
  58   24   59 1
  59   25   60 1
  60   25   61 1
  61   25   62 1
  62   26   27 2

#	End of record

