#	Name: ASD01816214
#	Creating user name:	WinNT
#	Creation time:	15. 06. 2019 19:34

#	Modifying user name:	WinNT
#	Modification time:	15. 06. 2019 19:34

#	Program:	/corina/corina34_cracker 3.40 0067  02.08.2006

@<TRIPOS>MOLECULE
ASD01816214
  60   64    0    0    0
SMALL
NO_CHARGES


@<TRIPOS>ATOM
   1 C1            -0.0017     1.3973     0.0115 C.ar    
   2 C2             0.0107     0.0119     0.0003 C.ar    
   3 C3             1.2039    -0.6803    -0.0143 C.ar    
   4 C4             2.4102     0.0110    -0.0174 C.ar    
   5 C5             2.3942     1.4157    -0.0061 C.ar    
   6 C6             1.1845     2.1023     0.0081 C.ar    
   7 N7             3.6109    -0.6776    -0.0311 N.pl3   
   8 C8             4.8055    -0.0645    -0.0348 C.2     
   9 C9             4.9147     1.3039    -0.0251 C.2     
  10 C10            3.6854     2.1294    -0.0097 C.2     
  11 C11            6.0162     2.2615    -0.0259 C.2     
  12 N12            5.4492     3.4872    -0.0127 N.am    
  13 N13            4.0564     3.3774    -0.0032 N.2     
  14 C14            6.1567     4.6961    -0.0087 C.ar    
  15 C15            5.9200     5.6390     0.9859 C.ar    
  16 C16            7.1000     4.9537    -0.9944 C.ar    
  17 C17            7.7961     6.1467    -0.9879 C.ar    
  18 C18            7.5554     7.0851    -0.0010 C.ar    
  19 C19            6.6208     6.8314     0.9859 C.ar    
  20 F20            5.0068     5.3908     1.9500 F       
  21 O21            7.2094     2.0060    -0.0357 O.2     
  22 C22            3.5768    -2.1422    -0.0416 C.3     
  23 C23            3.5549    -2.6340    -1.4659 C.ar    
  24 C24            4.7332    -2.8925    -2.1433 C.ar    
  25 C25            4.6730    -3.3451    -3.4566 C.ar    
  26 N26            3.5060    -3.5272    -4.0537 N.ar    
  27 C27            2.3663    -3.2891    -3.4329 C.ar    
  28 C28            2.3516    -2.8434    -2.1262 C.ar    
  29 N29            5.8526    -3.6089    -4.1510 N.am    
  30 O30            6.9334    -4.3045    -6.0983 O.3     
  31 C31            6.8034    -4.8898    -7.4207 C.3     
  32 C32            5.8956    -4.0087    -8.2814 C.3     
  33 C33            8.1841    -4.9894    -8.0723 C.3     
  34 C34            6.1934    -6.2879    -7.3020 C.3     
  35 C35            5.8019    -4.1462    -5.3860 C.2     
  36 O36            4.7350    -4.4878    -5.8565 O.2     
  37 H37           -0.9428     1.9272     0.0184 H       
  38 H38           -0.9227    -0.5313     0.0034 H       
  39 H39            1.2010    -1.7603    -0.0229 H       
  40 H40            1.1738     3.1822     0.0172 H       
  41 H41            5.7040    -0.6636    -0.0453 H       
  42 H42            7.2897     4.2216    -1.7654 H       
  43 H43            8.5298     6.3469    -1.7547 H       
  44 H44            8.1020     8.0166     0.0014 H       
  45 H45            6.4350     7.5665     1.7550 H       
  46 H46            4.4618    -2.5298     0.4631 H       
  47 H47            2.6824    -2.4885     0.4762 H       
  48 H48            5.6869    -2.7443    -1.6586 H       
  49 H49            1.4329    -3.4492    -3.9520 H       
  50 H50            1.4140    -2.6514    -1.6258 H       
  51 H51            6.7100    -3.4058    -3.7453 H       
  52 H52            6.3302    -3.0127    -8.3660 H       
  53 H53            5.7980    -4.4481    -9.2741 H       
  54 H54            4.9120    -3.9378    -7.8171 H       
  55 H55            8.8308    -5.6170    -7.4592 H       
  56 H56            8.0865    -5.4287    -9.0651 H       
  57 H57            8.6186    -3.9933    -8.1569 H       
  58 H58            5.2098    -6.2169    -6.8378 H       
  59 H59            6.0958    -6.7272    -8.2947 H       
  60 H60            6.8401    -6.9155    -6.6888 H       
@<TRIPOS>BOND
   1    1    2 ar
   2    1    6 ar
   3    1   37 1
   4    2    3 ar
   5    2   38 1
   6    3    4 ar
   7    3   39 1
   8    4    5 ar
   9    4    7 1
  10    5    6 ar
  11    5   10 1
  12    6   40 1
  13    7    8 1
  14    7   22 1
  15    8    9 2
  16    8   41 1
  17    9   10 1
  18    9   11 1
  19   10   13 2
  20   11   12 am
  21   11   21 2
  22   12   13 1
  23   12   14 1
  24   14   15 ar
  25   14   16 ar
  26   15   20 1
  27   15   19 ar
  28   16   17 ar
  29   16   42 1
  30   17   18 ar
  31   17   43 1
  32   18   19 ar
  33   18   44 1
  34   19   45 1
  35   22   23 1
  36   22   46 1
  37   22   47 1
  38   23   24 ar
  39   23   28 ar
  40   24   25 ar
  41   24   48 1
  42   25   26 ar
  43   25   29 1
  44   26   27 ar
  45   27   28 ar
  46   27   49 1
  47   28   50 1
  48   29   35 am
  49   29   51 1
  50   30   31 1
  51   30   35 1
  52   31   32 1
  53   31   33 1
  54   31   34 1
  55   32   52 1
  56   32   53 1
  57   32   54 1
  58   33   55 1
  59   33   56 1
  60   33   57 1
  61   34   58 1
  62   34   59 1
  63   34   60 1
  64   35   36 2

#	End of record

