#	Name: ASD00844788
#	Creating user name:	WinNT
#	Creation time:	15. 06. 2019 18:51

#	Modifying user name:	WinNT
#	Modification time:	15. 06. 2019 18:51

#	Program:	/corina/corina34_cracker 3.40 0067  02.08.2006

@<TRIPOS>MOLECULE
ASD00844788
  94   99    0    0    0
SMALL
NO_CHARGES


@<TRIPOS>ATOM
   1 F1             5.6874    -2.0442    -2.1391 F       
   2 C2             0.6735     1.3168    -0.6063 C.ar    
   3 C3             0.9461    -0.0233    -0.8383 C.ar    
   4 C4             0.8505    -0.9382     0.2005 C.ar    
   5 C5             0.4844    -0.5127     1.4625 C.ar    
   6 C6             0.2128     0.8238     1.6911 C.ar    
   7 C7             0.3077     1.7374     0.6580 C.ar    
   8 C8             1.1454    -2.3950    -0.0482 C.3     
   9 C9             0.8499    -3.2148     1.1897 C.2     
  10 C10            0.3330    -2.9094    -1.2382 C.3     
  11 C11           -1.1291    -2.6254    -1.0086 C.2     
  12 N12           -2.0460    -3.0482    -1.9014 N.am    
  13 O13           -1.4807    -2.0164    -0.0205 O.2     
  14 C14           -3.4601    -2.6773    -1.7548 C.3     
  15 C15           -4.3091    -3.9523    -1.7767 C.3     
  16 C16           -3.9961    -4.7470    -3.0466 C.3     
  17 C17           -2.5197    -5.1497    -3.0475 C.3     
  18 C18           -1.6495    -3.8837    -3.0431 C.3     
  19 N19           -4.8326    -5.9538    -3.0874 N.3     
  20 C20           -4.6457    -6.6818    -4.3502 C.3     
  21 C21           -5.4714    -7.9702    -4.3203 C.3     
  22 N22           -6.8875    -7.6367    -4.1126 N.3     
  23 C23           -7.0744    -6.9087    -2.8498 C.3     
  24 C24           -6.2487    -5.6204    -2.8797 C.3     
  25 C25           -7.7240    -8.8435    -4.1533 C.3     
  26 O26           -0.2272    -3.3340     1.7345 O.2     
  27 N27            2.0047    -3.7860     1.5711 N.am    
  28 C28            2.6239    -2.6033    -0.2831 C.ar    
  29 C29            3.0653    -3.4476     0.7280 C.ar    
  30 C30            3.4943    -2.1335    -1.2406 C.ar    
  31 C31            4.8295    -2.5032    -1.2018 C.ar    
  32 C32            5.2814    -3.3448    -0.1981 C.ar    
  33 C33            4.4083    -3.8159     0.7622 C.ar    
  34 Cl34           6.9534    -3.8090    -0.1476 Cl      
  35 C35            1.8588    -6.4246     2.3399 C.ar    
  36 C36            0.6074    -6.7832     1.8608 C.ar    
  37 C37            2.8756    -7.3592     2.3804 C.ar    
  38 C38            2.6468    -8.6506     1.9434 C.ar    
  39 C39            1.4002    -9.0106     1.4652 C.ar    
  40 C40            0.3802    -8.0802     1.4232 C.ar    
  41 H41            1.2239   -10.0202     1.1244 H       
  42 O42           -0.3945    -5.8660     1.8204 O.3     
  43 C43           -1.6567    -6.3057     1.3149 C.3     
  44 C44           -2.6516    -5.1437     1.3464 C.3     
  45 C45           -9.1407    -8.4980    -3.6902 C.3     
  46 O46            1.3056    -0.4395    -2.0810 O.3     
  47 C47            1.2852     0.5375    -3.1236 C.3     
  48 C48            1.8004    -0.0897    -4.4205 C.3     
  49 F49            3.0758    -0.6232    -4.2060 F       
  50 F50            0.9305    -1.1086    -4.8235 F       
  51 S51            2.1534    -4.7767     2.8897 S.o2    
  52 O52            3.5184    -4.7222     3.2808 O.2     
  53 O53            1.0812    -4.4471     3.7622 O.2     
  54 H54            0.7516     2.0316    -1.4121 H       
  55 H55            0.4099    -1.2245     2.2713 H       
  56 H56           -0.0740     1.1544     2.6785 H       
  57 H57            0.0951     2.7807     0.8390 H       
  58 H58            0.6623    -2.4066    -2.1476 H       
  59 H59            0.4823    -3.9841    -1.3428 H       
  60 H60           -3.6054    -2.1579    -0.8076 H       
  61 H61           -3.7549    -2.0278    -2.5790 H       
  62 H62           -4.0771    -4.5590    -0.9014 H       
  63 H63           -5.3660    -3.6859    -1.7655 H       
  64 H64           -4.2050    -4.1309    -3.9213 H       
  65 H65           -2.3045    -5.7452    -2.1603 H       
  66 H66           -2.3029    -5.7356    -3.9408 H       
  67 H67           -1.7979    -3.3351    -3.9732 H       
  68 H68           -0.6003    -4.1618    -2.9439 H       
  69 H69           -4.9747    -6.0583    -5.1815 H       
  70 H70           -3.5914    -6.9284    -4.4752 H       
  71 H71           -5.3571    -8.4974    -5.2674 H       
  72 H72           -5.1242    -8.6058    -3.5057 H       
  73 H73           -8.1288    -6.6621    -2.7248 H       
  74 H74           -6.7454    -7.5322    -2.0185 H       
  75 H75           -6.3630    -5.0931    -1.9326 H       
  76 H76           -6.5959    -4.9848    -3.6943 H       
  77 H77           -7.7586    -9.2274    -5.1729 H       
  78 H78           -7.3009    -9.6013    -3.4939 H       
  79 H79            3.1372    -1.4781    -2.0211 H       
  80 H80            4.7674    -4.4716     1.5417 H       
  81 H81            3.8501    -7.0804     2.7533 H       
  82 H82            3.4431    -9.3795     1.9751 H       
  83 H83           -0.5934    -8.3621     1.0504 H       
  84 H84           -1.5361    -6.6530     0.2888 H       
  85 H85           -2.0313    -7.1216     1.9330 H       
  86 H86           -2.2769    -4.3278     0.7283 H       
  87 H87           -3.6143    -5.4791     0.9608 H       
  88 H88           -2.7722    -4.7964     2.3725 H       
  89 H89           -9.7614    -9.3935    -3.7205 H       
  90 H90           -9.1062    -8.1141    -2.6707 H       
  91 H91           -9.5638    -7.7402    -4.3497 H       
  92 H92            0.2644     0.8901    -3.2711 H       
  93 H93            1.9232     1.3770    -2.8475 H       
  94 H94            1.8516     0.6728    -5.1977 H       
@<TRIPOS>BOND
   1    1   31 1
   2    2    3 ar
   3    2    7 ar
   4    2   54 1
   5    3    4 ar
   6    3   46 1
   7    4    5 ar
   8    4    8 1
   9    5    6 ar
  10    5   55 1
  11    6    7 ar
  12    6   56 1
  13    7   57 1
  14    8    9 1
  15    8   10 1
  16    8   28 1
  17    9   26 2
  18    9   27 am
  19   10   11 1
  20   10   58 1
  21   10   59 1
  22   11   12 am
  23   11   13 2
  24   12   14 1
  25   12   18 1
  26   14   15 1
  27   14   60 1
  28   14   61 1
  29   15   16 1
  30   15   62 1
  31   15   63 1
  32   16   17 1
  33   16   19 1
  34   16   64 1
  35   17   18 1
  36   17   65 1
  37   17   66 1
  38   18   67 1
  39   18   68 1
  40   19   20 1
  41   19   24 1
  42   20   21 1
  43   20   69 1
  44   20   70 1
  45   21   22 1
  46   21   71 1
  47   21   72 1
  48   22   23 1
  49   22   25 1
  50   23   24 1
  51   23   73 1
  52   23   74 1
  53   24   75 1
  54   24   76 1
  55   25   45 1
  56   25   77 1
  57   25   78 1
  58   27   51 am
  59   27   29 1
  60   28   29 ar
  61   28   30 ar
  62   29   33 ar
  63   30   31 ar
  64   30   79 1
  65   31   32 ar
  66   32   33 ar
  67   32   34 1
  68   33   80 1
  69   35   36 ar
  70   35   37 ar
  71   35   51 1
  72   36   42 1
  73   36   40 ar
  74   37   38 ar
  75   37   81 1
  76   38   39 ar
  77   38   82 1
  78   39   40 ar
  79   39   41 1
  80   40   83 1
  81   42   43 1
  82   43   44 1
  83   43   84 1
  84   43   85 1
  85   44   86 1
  86   44   87 1
  87   44   88 1
  88   45   89 1
  89   45   90 1
  90   45   91 1
  91   46   47 1
  92   47   48 1
  93   47   92 1
  94   47   93 1
  95   48   49 1
  96   48   50 1
  97   48   94 1
  98   51   52 2
  99   51   53 2

#	End of record

