#	Name: ASD06112001
#	Creating user name:	WinNT
#	Creation time:	15. 06. 2019 21:05

#	Modifying user name:	WinNT
#	Modification time:	15. 06. 2019 21:05

#	Program:	/corina/corina34_cracker 3.40 0067  02.08.2006

@<TRIPOS>MOLECULE
ASD06112001
  50   51    0    0    0
SMALL
NO_CHARGES


@<TRIPOS>ATOM
   1 C1            -0.0184     1.5028     0.0103 C.2     
   2 C2             0.0021    -0.0041     0.0020 C.3     
   3 C3            -0.6130    -0.5153    -1.3023 C.3     
   4 C4            -0.4797    -2.0381    -1.3665 C.3     
   5 C5            -1.0948    -2.5493    -2.6708 C.3     
   6 O6             1.0197     2.1211     0.0037 O.2     
   7 O7            -1.1898     2.1580     0.0194 O.3     
   8 C8            -0.5539    -2.7627     0.9587 C.2     
   9 C9            -1.2744    -3.3798     2.1296 C.3     
  10 O10            0.5894    -2.3781     1.0844 O.2     
  11 N11           -1.1801    -2.6381    -0.2282 N.am    
  12 O12           -0.4074    -3.4002     3.2654 O.3     
  13 C13           -0.9968    -3.9689     4.4364 C.3     
  14 O14            0.0701     0.0699    -2.4126 O.3     
  15 O15            1.3516    -0.4627     0.1041 O.3     
  16 C16           -0.4152    -6.7564    -3.0147 C.ar    
  17 C17           -1.5644    -6.2829    -2.3849 C.ar    
  18 C18           -1.7786    -4.9238    -2.2764 C.ar    
  19 C19           -0.8552    -4.0322    -2.7919 C.ar    
  20 C20            0.2871    -4.4967    -3.4185 C.ar    
  21 C21            0.5116    -5.8538    -3.5321 C.ar    
  22 C22           -0.1765    -8.2165    -3.1289 C.ar    
  23 C23            0.9727    -8.6897    -3.7586 C.ar    
  24 C24            1.1906   -10.0499    -3.8620 C.ar    
  25 C25            0.2696   -10.9422    -3.3412 C.ar    
  26 C26           -0.8736   -10.4771    -2.7146 C.ar    
  27 C27           -1.0980    -9.1187    -2.6016 C.ar    
  28 Cl28          -2.0244   -11.6026    -2.0645 Cl      
  29 Cl29           2.6218   -10.6410    -4.6470 Cl      
  30 H30           -0.5743    -0.3799     0.8474 H       
  31 H31           -1.6673    -0.2410    -1.3388 H       
  32 H32            0.5746    -2.3124    -1.3300 H       
  33 H33           -2.1671    -2.3536    -2.6681 H       
  34 H34           -0.6341    -2.0367    -3.5152 H       
  35 H35           -1.1523     3.1243     0.0245 H       
  36 H36           -2.1624    -2.7916     2.3609 H       
  37 H37           -1.5687    -4.3990     1.8790 H       
  38 H38           -2.0945    -2.9457    -0.3288 H       
  39 H39           -0.2754    -3.9474     5.2533 H       
  40 H40           -1.8790    -3.3929     4.7155 H       
  41 H41           -1.2854    -5.0003     4.2336 H       
  42 H42           -0.2678    -0.2100    -3.2743 H       
  43 H43            1.9236    -0.1656    -0.6168 H       
  44 H44           -2.2862    -6.9782    -1.9823 H       
  45 H45           -2.6690    -4.5557    -1.7884 H       
  46 H46            1.0048    -3.7962    -3.8192 H       
  47 H47            1.4042    -6.2154    -4.0209 H       
  48 H48            1.6918    -7.9942    -4.1656 H       
  49 H49            0.4433   -12.0049    -3.4243 H       
  50 H50           -1.9881    -8.7567    -2.1086 H       
@<TRIPOS>BOND
   1    1    2 1
   2    1    6 2
   3    1    7 1
   4    2    3 1
   5    2   15 1
   6    2   30 1
   7    3    4 1
   8    3   14 1
   9    3   31 1
  10    4    5 1
  11    4   11 1
  12    4   32 1
  13    5   19 1
  14    5   33 1
  15    5   34 1
  16    7   35 1
  17    8    9 1
  18    8   10 2
  19    8   11 am
  20    9   12 1
  21    9   36 1
  22    9   37 1
  23   11   38 1
  24   12   13 1
  25   13   39 1
  26   13   40 1
  27   13   41 1
  28   14   42 1
  29   15   43 1
  30   16   17 ar
  31   16   21 ar
  32   16   22 1
  33   17   18 ar
  34   17   44 1
  35   18   19 ar
  36   18   45 1
  37   19   20 ar
  38   20   21 ar
  39   20   46 1
  40   21   47 1
  41   22   23 ar
  42   22   27 ar
  43   23   24 ar
  44   23   48 1
  45   24   25 ar
  46   24   29 1
  47   25   26 ar
  48   25   49 1
  49   26   27 ar
  50   26   28 1
  51   27   50 1

#	End of record

