#	Name: ASD01914214
#	Creating user name:	WinNT
#	Creation time:	15. 06. 2019 20:03

#	Modifying user name:	WinNT
#	Modification time:	15. 06. 2019 20:03

#	Program:	/corina/corina34_cracker 3.40 0067  02.08.2006

@<TRIPOS>MOLECULE
ASD01914214
  46   47    0    0    0
SMALL
NO_CHARGES


@<TRIPOS>ATOM
   1 C1            -0.0179     1.4712     0.0101 C.2     
   2 C2             0.0021    -0.0041     0.0020 C.ar    
   3 C3             1.2196    -0.6894    -0.0133 C.ar    
   4 C4             1.2304    -2.0695    -0.0209 C.ar    
   5 C5             0.0380    -2.7743    -0.0133 C.ar    
   6 C6            -1.1706    -2.1013     0.0019 C.ar    
   7 C7            -1.1962    -0.7222     0.0154 C.ar    
   8 O8             1.0327     2.0970     0.0035 O.co2   
   9 O9            -1.0852     2.0682     0.0184 O.co2   
  10 Cl10           2.7415    -2.9239    -0.0404 Cl      
  11 H11            2.1498    -0.1406    -0.0195 H       
  12 H12            0.0519    -3.8542    -0.0196 H       
  13 H13           -2.0965    -2.6572     0.0073 H       
  14 H14           -2.1406    -0.1986     0.0317 H       
  15 C15            9.8138    16.8859     7.2721 C.2     
  16 C16            9.8633    15.3968     7.0455 C.3     
  17 C17           11.2750    14.8834     7.3357 C.3     
  18 C18           11.3233    13.4289     7.1144 C.1     
  19 C19           11.3618    12.2689     6.9378 C.1     
  20 O20           10.8060    17.4759     7.6292 O.2     
  21 O21            8.6688    17.5577     7.0720 O.3     
  22 C22           11.4088    10.8540     6.7224 C.ar    
  23 C23           12.6031    10.1619     6.9265 C.ar    
  24 C24           12.6323     8.7951     6.7142 C.ar    
  25 C25           11.4664     8.1628     6.3044 C.ar    
  26 C26           10.3175     8.9098     6.1212 C.ar    
  27 N27           10.3140    10.2097     6.3352 N.ar    
  28 C28            8.7197    18.9113     7.1846 C.ar    
  29 C29            9.2937    19.6713     6.1759 C.ar    
  30 C30            9.3443    21.0478     6.2930 C.ar    
  31 C31            8.8228    21.6670     7.4156 C.ar    
  32 C32            8.2510    20.9110     8.4216 C.ar    
  33 C33            8.1928    19.5354     8.3059 C.ar    
  34 Cl34          10.0628    22.0000     5.0317 Cl      
  35 H35            9.1537    14.9044     7.7104 H       
  36 H36            9.6029    15.1781     6.0099 H       
  37 H37           11.9846    15.3759     6.6709 H       
  38 H38           11.5354    15.1021     8.3713 H       
  39 H39           13.4922    10.6857     7.2453 H       
  40 H40           13.5421     8.2326     6.8636 H       
  41 H41           11.4570     7.0970     6.1300 H       
  42 H42            9.4092     8.4202     5.8021 H       
  43 H43            9.7009    19.1879     5.3001 H       
  44 H44            8.8630    22.7425     7.5058 H       
  45 H45            7.8451    21.3964     9.2968 H       
  46 H46            7.7415    18.9459     9.0903 H       
@<TRIPOS>BOND
   1    1    2 1
   2    1    8 ar
   3    1    9 ar
   4    2    3 ar
   5    2    7 ar
   6    3    4 ar
   7    3   11 1
   8    4    5 ar
   9    4   10 1
  10    5    6 ar
  11    5   12 1
  12    6    7 ar
  13    6   13 1
  14    7   14 1
  15   15   16 1
  16   15   20 2
  17   15   21 1
  18   16   17 1
  19   16   35 1
  20   16   36 1
  21   17   18 1
  22   17   37 1
  23   17   38 1
  24   18   19 3
  25   19   22 1
  26   21   28 1
  27   22   23 ar
  28   22   27 ar
  29   23   24 ar
  30   23   39 1
  31   24   25 ar
  32   24   40 1
  33   25   26 ar
  34   25   41 1
  35   26   27 ar
  36   26   42 1
  37   28   29 ar
  38   28   33 ar
  39   29   30 ar
  40   29   43 1
  41   30   31 ar
  42   30   34 1
  43   31   32 ar
  44   31   44 1
  45   32   33 ar
  46   32   45 1
  47   33   46 1

#	End of record

