#	Name: ASD01883659
#	Creating user name:	WinNT
#	Creation time:	15. 06. 2019 19:46

#	Modifying user name:	WinNT
#	Modification time:	15. 06. 2019 19:46

#	Program:	/corina/corina34_cracker 3.40 0067  02.08.2006

@<TRIPOS>MOLECULE
ASD01883659
  46   49    0    0    0
SMALL
NO_CHARGES


@<TRIPOS>ATOM
   1 C1            -0.8237    -0.0452     1.1321 C.2     
   2 C2             0.0021    -0.0041     0.0020 C.2     
   3 C3            -0.4076     0.7446    -1.1170 C.2     
   4 C4            -1.5742     1.4165    -1.1135 C.2     
   5 N5            -2.4097     1.4053    -0.0352 N.pl3   
   6 C6            -2.0877     0.6951     1.0923 C.2     
   7 C7            -3.6249     1.9989     0.2030 C.2     
   8 C8            -4.0020     1.6466     1.4486 C.2     
   9 N9            -3.0585     0.8551     1.9730 N.2     
  10 N10            1.2030    -0.6889    -0.0141 N.pl3   
  11 C11            1.2370    -2.1558     0.0877 C.3     
  12 C12            2.0969    -2.7033    -1.0563 C.3     
  13 N13            3.4117    -2.0485    -1.0331 N.3     
  14 C14            3.2915    -0.6035    -1.2687 C.3     
  15 C15            2.4801     0.0297    -0.1395 C.3     
  16 C16            4.2818    -2.6370    -1.9584 C.ar    
  17 C17            4.8263    -1.8739    -2.9853 C.ar    
  18 C18            5.6859    -2.4582    -3.8976 C.ar    
  19 C19            6.0032    -3.8015    -3.7885 C.ar    
  20 C20            5.4615    -4.5624    -2.7664 C.ar    
  21 C21            4.6067    -3.9820    -1.8490 C.ar    
  22 C22           -4.3926     2.8794    -0.7491 C.3     
  23 C23           -4.0747     4.3469    -0.4555 C.3     
  24 F24           -2.7030     4.5686    -0.6185 F       
  25 F25           -4.7874     5.1643    -1.3394 F       
  26 F26           -4.4430     4.6498     0.8597 F       
  27 F27            4.5158    -0.5634    -3.0920 F       
  28 F28            6.8424    -4.3709    -4.6811 F       
  29 C29           -0.4463    -0.7948     2.2924 C.1     
  30 N30           -0.1469    -1.3894     3.2129 N.1     
  31 H31            0.2241     0.7810    -1.9922 H       
  32 H32           -1.8567     1.9811    -1.9898 H       
  33 H33           -4.9147     1.9498     1.9400 H       
  34 H34            1.6717    -2.4464     1.0441 H       
  35 H35            0.2247    -2.5519     0.0069 H       
  36 H36            2.2241    -3.7788    -0.9331 H       
  37 H37            1.6068    -2.5013    -2.0087 H       
  38 H38            4.2850    -0.1561    -1.2996 H       
  39 H39            2.7847    -0.4307    -2.2181 H       
  40 H40            2.2910     1.0786    -0.3681 H       
  41 H41            3.0319    -0.0501     0.7971 H       
  42 H42            6.1096    -1.8665    -4.6956 H       
  43 H43            5.7107    -5.6100    -2.6836 H       
  44 H44            4.1849    -4.5766    -1.0523 H       
  45 H45           -4.1056     2.6434    -1.7738 H       
  46 H46           -5.4613     2.7067    -0.6221 H       
@<TRIPOS>BOND
   1    1    2 2
   2    1   29 1
   3    1    6 1
   4    2    3 1
   5    2   10 1
   6    3    4 2
   7    3   31 1
   8    4    5 1
   9    4   32 1
  10    5    6 1
  11    5    7 1
  12    6    9 2
  13    7    8 2
  14    7   22 1
  15    8    9 1
  16    8   33 1
  17   10   11 1
  18   10   15 1
  19   11   12 1
  20   11   34 1
  21   11   35 1
  22   12   13 1
  23   12   36 1
  24   12   37 1
  25   13   14 1
  26   13   16 1
  27   14   15 1
  28   14   38 1
  29   14   39 1
  30   15   40 1
  31   15   41 1
  32   16   17 ar
  33   16   21 ar
  34   17   18 ar
  35   17   27 1
  36   18   19 ar
  37   18   42 1
  38   19   20 ar
  39   19   28 1
  40   20   21 ar
  41   20   43 1
  42   21   44 1
  43   22   23 1
  44   22   45 1
  45   22   46 1
  46   23   24 1
  47   23   25 1
  48   23   26 1
  49   29   30 3

#	End of record

