#	Name: ASD01150198
#	Creating user name:	WinNT
#	Creation time:	15. 06. 2019 19:03

#	Modifying user name:	WinNT
#	Modification time:	15. 06. 2019 19:03

#	Program:	/corina/corina34_cracker 3.40 0067  02.08.2006

@<TRIPOS>MOLECULE
ASD01150198
  43   45    0    0    0
SMALL
NO_CHARGES


@<TRIPOS>ATOM
   1 N1            -0.0166     1.3763     0.0096 N.pl3   
   2 C2             0.0021    -0.0041     0.0020 C.2     
   3 C3            -1.3262    -0.4109     0.0125 C.2     
   4 N4            -2.0781     0.6927     0.0256 N.2     
   5 C5            -1.3102     1.7524     0.0299 C.2     
   6 C6             1.0206    -0.9813    -0.0125 C.2     
   7 N7             0.6807    -2.2871    -0.0159 N.am    
   8 C8            -0.6087    -2.6667    -0.0061 C.2     
   9 N9            -1.6103    -1.7670     0.0083 N.am    
  10 O10            2.1925    -0.6496    -0.0223 O.2     
  11 C11           -3.0026    -2.2226     0.0187 C.3     
  12 O12           -0.8774    -3.8526    -0.0100 O.2     
  13 C13            1.7328    -3.3064    -0.0310 C.3     
  14 C14            2.1070    -3.6631     1.3845 C.ar    
  15 C15            1.4454    -4.6866     2.0371 C.ar    
  16 C16            1.7881    -5.0142     3.3353 C.ar    
  17 C17            2.7936    -4.3176     3.9819 C.ar    
  18 C18            3.4553    -3.2933     3.3283 C.ar    
  19 C19            3.1155    -2.9704     2.0281 C.ar    
  20 C20            1.1490     2.2638     0.0032 C.3     
  21 C21           -3.4739    -2.3894     1.4647 C.3     
  22 Cl22           3.2242    -4.7281     5.6127 Cl      
  23 C23           -4.9279    -2.8653     1.4755 C.3     
  24 C24           -1.7991     3.1779     0.0446 C.3     
  25 H25           -3.6294    -1.4868    -0.4852 H       
  26 H26           -3.0759    -3.1785    -0.4999 H       
  27 H27            1.3696    -4.1958    -0.5459 H       
  28 H28            2.6081    -2.9174    -0.5512 H       
  29 H29            0.6603    -5.2301     1.5324 H       
  30 H30            1.2710    -5.8136     3.8452 H       
  31 H31            4.2402    -2.7492     3.8325 H       
  32 H32            3.6320    -2.1709     1.5178 H       
  33 H33            1.4282     2.4894    -1.0259 H       
  34 H34            0.9039     3.1892     0.5244 H       
  35 H35            1.9820     1.7730     0.5065 H       
  36 H36           -2.8470    -3.1252     1.9685 H       
  37 H37           -3.4005    -1.4335     1.9833 H       
  38 H38           -5.5548    -2.1295     0.9717 H       
  39 H39           -5.0013    -3.8212     0.9569 H       
  40 H40           -5.2637    -2.9841     2.5057 H       
  41 H41           -1.9113     3.5128     1.0757 H       
  42 H42           -1.0779     3.8146    -0.4679 H       
  43 H43           -2.7616     3.2371    -0.4635 H       
@<TRIPOS>BOND
   1    1    2 1
   2    1   20 1
   3    1    5 1
   4    2    3 2
   5    2    6 1
   6    3    4 1
   7    3    9 1
   8    4    5 2
   9    5   24 1
  10    6    7 am
  11    6   10 2
  12    7    8 am
  13    7   13 1
  14    8    9 am
  15    8   12 2
  16    9   11 1
  17   11   21 1
  18   11   25 1
  19   11   26 1
  20   13   14 1
  21   13   27 1
  22   13   28 1
  23   14   15 ar
  24   14   19 ar
  25   15   16 ar
  26   15   29 1
  27   16   17 ar
  28   16   30 1
  29   17   18 ar
  30   17   22 1
  31   18   19 ar
  32   18   31 1
  33   19   32 1
  34   20   33 1
  35   20   34 1
  36   20   35 1
  37   21   23 1
  38   21   36 1
  39   21   37 1
  40   23   38 1
  41   23   39 1
  42   23   40 1
  43   24   41 1
  44   24   42 1
  45   24   43 1

#	End of record

