#	Name: ASD01810523
#	Creating user name:	WinNT
#	Creation time:	15. 06. 2019 19:24

#	Modifying user name:	WinNT
#	Modification time:	15. 06. 2019 19:24

#	Program:	/corina/corina34_cracker 3.40 0067  02.08.2006

@<TRIPOS>MOLECULE
ASD01810523
 119  124    0    0    0
SMALL
NO_CHARGES


@<TRIPOS>ATOM
   1 S1             2.6166     1.2390     2.1716 S.3     
   2 C2             3.2776    -0.2006     3.0937 C.3     
   3 N3             2.2061    -1.1930     2.9967 N.am    
   4 C4             0.9995    -0.7694     2.6316 C.2     
   5 C5             0.8635     0.7148     2.3525 C.3     
   6 C6             4.5513    -0.6984     2.4232 C.3     
   7 C7             5.0850    -1.9184     3.1826 C.3     
   8 N8             5.2254    -1.5659     4.6021 N.am    
   9 C9             4.0614    -1.0224     5.3154 C.3     
  10 C10            3.5343     0.1922     4.5427 C.3     
  11 C11            0.0863     0.9564     1.0570 C.3     
  12 C12           -0.1402     2.4581     0.8706 C.3     
  13 O13            0.0593    -1.5285     2.5280 O.2     
  14 C14            2.4547    -2.6063     3.2916 C.3     
  15 C15            5.7992   -12.0586    -1.8715 C.3     
  16 O16            6.1608   -13.4072    -1.5677 O.3     
  17 C17            6.5100   -14.2026    -2.6127 C.ar    
  18 C18            6.8652   -15.5013    -2.3821 C.ar    
  19 C19            6.4957   -13.6826    -3.9104 C.ar    
  20 C20            6.8400   -14.4538    -4.9765 C.ar    
  21 C21            7.2163   -15.7930    -4.7755 C.ar    
  22 C22            7.2263   -16.3242    -3.4610 C.ar    
  23 C23            7.5785   -16.6178    -5.8541 C.ar    
  24 C24            7.9381   -17.9100    -5.6231 C.ar    
  25 C25            7.9527   -18.4309    -4.3304 C.ar    
  26 C26            7.6034   -17.6638    -3.2620 C.ar    
  27 C27            8.3257   -18.7911    -6.7826 C.3     
  28 N28            9.7373   -18.5747    -7.1097 N.pl3   
  29 C29           10.0560   -17.6384    -8.0703 C.ar    
  30 C30           11.3976   -17.4021    -8.4118 C.ar    
  31 C31           12.4489   -18.1736    -7.7228 C.2     
  32 C32           12.0127   -19.1504    -6.7120 C.2     
  33 C33           10.6628   -19.2907    -6.4593 C.2     
  34 C34            9.0525   -16.9150    -8.7150 C.ar    
  35 C35            9.3851   -15.9817    -9.6743 C.ar    
  36 C36           10.7122   -15.7513   -10.0085 C.ar    
  37 C37           11.7183   -16.4547    -9.3847 C.ar    
  38 F38            7.7562   -17.1288    -8.4003 F       
  39 O39           13.6287   -18.0096    -7.9799 O.2     
  40 C40           12.9979   -19.9597    -5.9809 C.2     
  41 O41           12.6264   -20.7635    -5.1481 O.2     
  42 O42           14.3136   -19.8105    -6.2338 O.3     
  43 C43           16.6676   -20.3348    -5.8956 C.3     
  44 C44           15.2294   -20.6428    -5.4742 C.3     
  45 O45            6.5161    -1.4113     6.5396 O.3     
  46 C46            7.8113    -1.6238     7.1604 C.3     
  47 C47            8.8687    -0.7918     6.4320 C.3     
  48 C48            7.7493    -1.1976     8.6285 C.3     
  49 C49            8.1809    -3.1061     7.0748 C.3     
  50 C50            6.4007    -1.7384     5.2387 C.2     
  51 O51            7.3563    -2.1891     4.6385 O.2     
  52 C52            2.8138    -3.3415     1.9988 C.3     
  53 C53            3.2010    -4.7855     2.3240 C.3     
  54 C54            3.5601    -5.5208     1.0312 C.3     
  55 C55            3.9473    -6.9648     1.3565 C.3     
  56 C56            4.3065    -7.7000     0.0637 C.3     
  57 C57            4.6937    -9.1441     0.3889 C.3     
  58 C58            5.0528    -9.8793    -0.9039 C.3     
  59 C59            5.4400   -11.3233    -0.5787 C.3     
  60 H60            0.3904     1.2256     3.1912 H       
  61 H61            4.3337    -0.9786     1.3925 H       
  62 H62            5.3008     0.0929     2.4341 H       
  63 H63            4.3855    -2.7480     3.0794 H       
  64 H64            6.0564    -2.2040     2.7791 H       
  65 H65            3.2826    -1.7826     5.3770 H       
  66 H66            4.3575    -0.7169     6.3189 H       
  67 H67            4.2730     0.9930     4.5767 H       
  68 H68            2.6046     0.5359     4.9962 H       
  69 H69            0.6565     0.5675     0.2133 H       
  70 H70           -0.8762     0.4477     1.1104 H       
  71 H71            0.8224     2.9668     0.8171 H       
  72 H72           -0.6939     2.6302    -0.0524 H       
  73 H73           -0.7103     2.8470     1.7142 H       
  74 H74            3.2800    -2.6902     3.9986 H       
  75 H75            1.5584    -3.0501     3.7251 H       
  76 H76            6.6384   -11.5571    -2.3536 H       
  77 H77            4.9399   -12.0551    -2.5422 H       
  78 H78            6.8686   -15.8929    -1.3755 H       
  79 H79            6.2067   -12.6541    -4.0686 H       
  80 H80            6.8240   -14.0390    -5.9736 H       
  81 H81            7.5713   -16.2284    -6.8614 H       
  82 H82            8.2416   -19.4598    -4.1747 H       
  83 H83            7.6194   -18.0809    -2.2659 H       
  84 H84            8.1714   -19.8358    -6.5126 H       
  85 H85            7.7103   -18.5446    -7.6478 H       
  86 H86           10.3423   -20.0071    -5.7174 H       
  87 H87            8.6046   -15.4244   -10.1708 H       
  88 H88           10.9570   -15.0174   -10.7621 H       
  89 H89           12.7503   -16.2736    -9.6466 H       
  90 H90           16.7865   -20.5409    -6.9593 H       
  91 H91           16.8858   -19.2845    -5.7024 H       
  92 H92           17.3550   -20.9596    -5.3254 H       
  93 H93           15.1104   -20.4367    -4.4105 H       
  94 H94           15.0112   -21.6931    -5.6674 H       
  95 H95            8.6054     0.2642     6.4930 H       
  96 H96            9.8410    -0.9513     6.8980 H       
  97 H97            8.9129    -1.0954     5.3861 H       
  98 H98            6.9961    -1.7904     9.1475 H       
  99 H99            8.7217    -1.3572     9.0946 H       
 100 H100           7.4861    -0.1416     8.6895 H       
 101 H101           8.2251    -3.4097     6.0289 H       
 102 H102           9.1532    -3.2656     7.5409 H       
 103 H103           7.4276    -3.6989     7.5938 H       
 104 H104           1.9545    -3.3380     1.3282 H       
 105 H105           3.6530    -2.8401     1.5168 H       
 106 H106           4.0602    -4.7890     2.9947 H       
 107 H107           2.3618    -5.2870     2.8061 H       
 108 H108           2.7009    -5.5173     0.3606 H       
 109 H109           4.3993    -5.0193     0.5492 H       
 110 H110           4.8066    -6.9683     2.0271 H       
 111 H111           3.1081    -7.4662     1.8385 H       
 112 H112           3.4472    -7.6965    -0.6070 H       
 113 H113           5.1457    -7.1986    -0.4184 H       
 114 H114           5.5529    -9.1475     1.0596 H       
 115 H115           3.8545    -9.6455     0.8710 H       
 116 H116           4.1936    -9.8758    -1.5746 H       
 117 H117           5.8920    -9.3779    -1.3860 H       
 118 H118           4.6008   -11.8248    -0.0966 H       
 119 H119           6.2993   -11.3268     0.0920 H       
@<TRIPOS>BOND
   1    1    2 1
   2    1    5 1
   3    2    3 1
   4    2    6 1
   5    2   10 1
   6    3    4 am
   7    3   14 1
   8    4    5 1
   9    4   13 2
  10    5   11 1
  11    5   60 1
  12    6    7 1
  13    6   61 1
  14    6   62 1
  15    7    8 1
  16    7   63 1
  17    7   64 1
  18    8   50 am
  19    8    9 1
  20    9   10 1
  21    9   65 1
  22    9   66 1
  23   10   67 1
  24   10   68 1
  25   11   12 1
  26   11   69 1
  27   11   70 1
  28   12   71 1
  29   12   72 1
  30   12   73 1
  31   14   52 1
  32   14   74 1
  33   14   75 1
  34   15   59 1
  35   15   16 1
  36   15   76 1
  37   15   77 1
  38   16   17 1
  39   17   18 ar
  40   17   19 ar
  41   18   22 ar
  42   18   78 1
  43   19   20 ar
  44   19   79 1
  45   20   21 ar
  46   20   80 1
  47   21   22 ar
  48   21   23 ar
  49   22   26 ar
  50   23   24 ar
  51   23   81 1
  52   24   25 ar
  53   24   27 1
  54   25   26 ar
  55   25   82 1
  56   26   83 1
  57   27   28 1
  58   27   84 1
  59   27   85 1
  60   28   29 1
  61   28   33 1
  62   29   30 ar
  63   29   34 ar
  64   30   31 1
  65   30   37 ar
  66   31   32 1
  67   31   39 2
  68   32   33 2
  69   32   40 1
  70   33   86 1
  71   34   35 ar
  72   34   38 1
  73   35   36 ar
  74   35   87 1
  75   36   37 ar
  76   36   88 1
  77   37   89 1
  78   40   42 1
  79   40   41 2
  80   42   44 1
  81   43   44 1
  82   43   90 1
  83   43   91 1
  84   43   92 1
  85   44   93 1
  86   44   94 1
  87   45   46 1
  88   45   50 1
  89   46   47 1
  90   46   48 1
  91   46   49 1
  92   47   95 1
  93   47   96 1
  94   47   97 1
  95   48   98 1
  96   48   99 1
  97   48  100 1
  98   49  101 1
  99   49  102 1
 100   49  103 1
 101   50   51 2
 102   52   53 1
 103   52  104 1
 104   52  105 1
 105   53   54 1
 106   53  106 1
 107   53  107 1
 108   54   55 1
 109   54  108 1
 110   54  109 1
 111   55   56 1
 112   55  110 1
 113   55  111 1
 114   56   57 1
 115   56  112 1
 116   56  113 1
 117   57   58 1
 118   57  114 1
 119   57  115 1
 120   58   59 1
 121   58  116 1
 122   58  117 1
 123   59  118 1
 124   59  119 1

#	End of record

