#	Name: ASD07930425
#	Creating user name:	WinNT
#	Creation time:	15. 06. 2019 21:12

#	Modifying user name:	WinNT
#	Modification time:	15. 06. 2019 21:12

#	Program:	/corina/corina34_cracker 3.40 0067  02.08.2006

@<TRIPOS>MOLECULE
ASD07930425
  46   48    0    0    0
SMALL
NO_CHARGES


@<TRIPOS>ATOM
   1 N1            -0.0202     1.3052    -0.0069 N.2     
   2 N2            -1.1711    -0.7287     0.0032 N.pl3   
   3 C3            -1.3933    -1.7678    -1.0076 C.3     
   4 C4            -0.2700    -2.8100    -0.9173 C.3     
   5 S5             1.3233    -1.9506    -1.1099 S.o2    
   6 N6             1.1982    -0.6969    -0.0193 N.am    
   7 C7            -0.0006     0.0020    -0.0075 C.2     
   8 C8             2.2991    -0.3501     0.8828 C.3     
   9 C9            -1.3918    -1.1345    -2.4004 C.3     
  10 C10           -2.7209    -2.4361    -0.7591 C.ar    
  11 C11           -2.9224    -3.7650    -1.1052 C.ar    
  12 C12           -4.1510    -4.3480    -0.8636 C.ar    
  13 N13           -5.1299    -3.6582    -0.3105 N.ar    
  14 C14           -4.9768    -2.3890     0.0337 C.ar    
  15 C15           -3.7650    -1.7403    -0.1752 C.ar    
  16 O16            2.3899    -2.7490    -0.6159 O.2     
  17 O17            1.4032    -1.3145    -2.3781 O.2     
  18 N18           -6.0381    -1.6986     0.6149 N.am    
  19 C19           -7.2454    -2.2875     0.7251 C.2     
  20 O20           -7.4341    -3.3830     0.2342 O.2     
  21 C21           -8.3420    -1.5995     1.4445 C.ar    
  22 N22           -8.1376    -0.4003     1.9826 N.ar    
  23 C23           -9.1159     0.2089     2.6220 C.ar    
  24 C24          -10.3580    -0.3984     2.7353 C.ar    
  25 N25          -10.5665    -1.5897     2.2031 N.ar    
  26 C26           -9.5937    -2.2044     1.5548 C.ar    
  27 C27          -11.4729     0.3026     3.4681 C.3     
  28 H28            0.8124     1.8028    -0.0148 H       
  29 H29           -1.8476    -0.5525     0.6757 H       
  30 H30           -0.3054    -3.3053     0.0530 H       
  31 H31           -0.3881    -3.5473    -1.7114 H       
  32 H32            2.9443     0.3856     0.4025 H       
  33 H33            1.8953     0.0678     1.8050 H       
  34 H34            2.8769    -1.2455     1.1121 H       
  35 H35           -0.4304    -0.6533    -2.5797 H       
  36 H36           -1.5570    -1.9073    -3.1511 H       
  37 H37           -2.1871    -0.3917    -2.4626 H       
  38 H38           -2.1269    -4.3373    -1.5592 H       
  39 H39           -4.3124    -5.3817    -1.1312 H       
  40 H40           -3.6429    -0.7048     0.1065 H       
  41 H41           -5.9081    -0.7941     0.9402 H       
  42 H42           -8.9501     1.1825     3.0590 H       
  43 H43           -9.7644    -3.1780     1.1195 H       
  44 H44          -12.0390     0.9161     2.7672 H       
  45 H45          -12.1336    -0.4380     3.9185 H       
  46 H46          -11.0523     0.9368     4.2485 H       
@<TRIPOS>BOND
   1    1    7 2
   2    1   28 1
   3    2    3 1
   4    2    7 1
   5    2   29 1
   6    3    4 1
   7    3    9 1
   8    3   10 1
   9    4    5 1
  10    4   30 1
  11    4   31 1
  12    5    6 am
  13    5   16 2
  14    5   17 2
  15    6    7 1
  16    6    8 1
  17    8   32 1
  18    8   33 1
  19    8   34 1
  20    9   35 1
  21    9   36 1
  22    9   37 1
  23   10   11 ar
  24   10   15 ar
  25   11   12 ar
  26   11   38 1
  27   12   13 ar
  28   12   39 1
  29   13   14 ar
  30   14   15 ar
  31   14   18 1
  32   15   40 1
  33   18   19 am
  34   18   41 1
  35   19   20 2
  36   19   21 1
  37   21   22 ar
  38   21   26 ar
  39   22   23 ar
  40   23   24 ar
  41   23   42 1
  42   24   25 ar
  43   24   27 1
  44   25   26 ar
  45   26   43 1
  46   27   44 1
  47   27   45 1
  48   27   46 1

#	End of record

