#	Name: ASD01903119
#	Creating user name:	WinNT
#	Creation time:	15. 06. 2019 19:54

#	Modifying user name:	WinNT
#	Modification time:	15. 06. 2019 19:54

#	Program:	/corina/corina34_cracker 3.40 0067  02.08.2006

@<TRIPOS>MOLECULE
ASD01903119
  47   51    0    0    0
SMALL
NO_CHARGES


@<TRIPOS>ATOM
   1 C1            -0.0197     1.3183    -0.1382 C.2     
   2 C2             0.0064    -0.0283     0.1113 C.2     
   3 C3             1.3692     1.7545    -0.2231 C.2     
   4 N4             2.1695     0.6855    -0.0255 N.am    
   5 C5             1.4214    -0.4205     0.1822 C.2     
   6 O6             1.8430    -1.5393     0.3908 O.2     
   7 O7             1.7436     2.8905    -0.4362 O.2     
   8 C8             3.5726     0.7178    -0.0353 C.ar    
   9 C9             4.2694     0.9545     1.1413 C.ar    
  10 C10            5.6499     0.9865     1.1322 C.ar    
  11 C11            6.3416     0.7817    -0.0543 C.ar    
  12 C12            5.6448     0.5448    -1.2324 C.ar    
  13 C13            4.2642     0.5072    -1.2221 C.ar    
  14 Cl14           3.3927     0.2105    -2.6939 Cl      
  15 N15            7.7409     0.8146    -0.0633 N.am    
  16 C16            8.3962     1.3245    -1.1250 C.2     
  17 C17            9.8714     1.4545    -1.0922 C.ar    
  18 N18           10.5424     1.0672    -0.0146 N.ar    
  19 C19           11.8522     1.1652     0.0548 C.ar    
  20 C20           12.5843     1.6803    -1.0027 C.ar    
  21 C21           11.9233     2.0970    -2.1478 C.ar    
  22 C22           10.5435     1.9771    -2.1952 C.ar    
  23 O23            7.7767     1.6777    -2.1092 O.2     
  24 C24           -1.2435    -0.7901     0.2518 C.ar    
  25 C25           -2.4195    -0.1819    -0.2143 C.ar    
  26 C26           -2.3838     1.1727    -0.8643 C.3     
  27 C27           -1.3062     2.0820    -0.2705 C.3     
  28 C28           -1.2814    -2.0582     0.8214 C.ar    
  29 C29           -2.4892    -2.7166     0.9407 C.ar    
  30 C30           -3.6521    -2.1116     0.4954 C.ar    
  31 C31           -3.6180    -0.8531    -0.0777 C.ar    
  32 H32            3.7317     1.1141     2.0643 H       
  33 H33            6.1917     1.1710     2.0481 H       
  34 H34            6.1826     0.3855    -2.1554 H       
  35 H35            8.2390     0.4704     0.6945 H       
  36 H36           12.3640     0.8399     0.9485 H       
  37 H37           13.6595     1.7568    -0.9354 H       
  38 H38           12.4715     2.5023    -2.9854 H       
  39 H39            9.9962     2.2914    -3.0716 H       
  40 H40           -2.1930     1.0468    -1.9301 H       
  41 H41           -3.3553     1.6501    -0.7368 H       
  42 H42           -1.6274     2.4321     0.7106 H       
  43 H43           -1.1514     2.9379    -0.9274 H       
  44 H44           -0.3714    -2.5253     1.1681 H       
  45 H45           -2.5266    -3.7023     1.3804 H       
  46 H46           -4.5955    -2.6275     0.5964 H       
  47 H47           -4.5334    -0.3935    -0.4201 H       
@<TRIPOS>BOND
   1    1    2 2
   2    1    3 1
   3    1   27 1
   4    2    5 1
   5    2   24 1
   6    3    4 am
   7    3    7 2
   8    4    5 am
   9    4    8 1
  10    5    6 2
  11    8    9 ar
  12    8   13 ar
  13    9   10 ar
  14    9   32 1
  15   10   11 ar
  16   10   33 1
  17   11   12 ar
  18   11   15 1
  19   12   13 ar
  20   12   34 1
  21   13   14 1
  22   15   16 am
  23   15   35 1
  24   16   17 1
  25   16   23 2
  26   17   18 ar
  27   17   22 ar
  28   18   19 ar
  29   19   20 ar
  30   19   36 1
  31   20   21 ar
  32   20   37 1
  33   21   22 ar
  34   21   38 1
  35   22   39 1
  36   24   25 ar
  37   24   28 ar
  38   25   26 1
  39   25   31 ar
  40   26   27 1
  41   26   40 1
  42   26   41 1
  43   27   42 1
  44   27   43 1
  45   28   29 ar
  46   28   44 1
  47   29   30 ar
  48   29   45 1
  49   30   31 ar
  50   30   46 1
  51   31   47 1

#	End of record

