#	Name: ASD03090938
#	Creating user name:	WinNT
#	Creation time:	15. 06. 2019 20:29

#	Modifying user name:	WinNT
#	Modification time:	15. 06. 2019 20:29

#	Program:	/corina/corina34_cracker 3.40 0067  02.08.2006

@<TRIPOS>MOLECULE
ASD03090938
  47   51    0    0    0
SMALL
NO_CHARGES


@<TRIPOS>ATOM
   1 N1            -0.0042     1.4734    -0.0748 N.am    
   2 C2             0.0220     0.0084    -0.0891 C.3     
   3 C3             1.5116    -0.3676    -0.1473 C.3     
   4 C4             2.2385     0.9584    -0.1619 C.ar    
   5 C5             3.5881     1.2511    -0.2092 C.ar    
   6 C6             4.0137     2.5670    -0.2128 C.ar    
   7 C7             3.0838     3.5908    -0.1692 C.ar    
   8 C8             1.7367     3.3028    -0.1224 C.ar    
   9 C9             1.2996     1.9765    -0.1181 C.ar    
  10 C10           -1.1216     2.2258    -0.0320 C.2     
  11 O11           -2.2168     1.6948    -0.0992 O.2     
  12 N12           -1.0289     3.5534     0.0841 N.2     
  13 S13           -3.7247     3.7800    -0.3449 S.3     
  14 C14           -2.1249     4.3055     0.0160 C.2     
  15 N15           -2.2126     5.6447     0.2170 N.pl3   
  16 C16           -3.4468     6.2066     0.0947 C.2     
  17 C17           -4.4483     5.3919    -0.2096 C.2     
  18 O18            2.2408     8.6738     1.5020 O.3     
  19 C19            2.7706     9.5287     0.4831 C.3     
  20 C20            1.6029    10.2866    -0.1630 C.3     
  21 O21            0.7003     9.3263    -0.7224 O.3     
  22 C22            0.3739     8.2635     0.0629 C.ar    
  23 C23            1.1446     7.9356     1.1728 C.ar    
  24 C24           -0.7405     7.5026    -0.2531 C.ar    
  25 C25           -1.0847     6.4139     0.5363 C.ar    
  26 C26           -0.3119     6.0875     1.6421 C.ar    
  27 C27            0.7984     6.8465     1.9584 C.ar    
  28 F28            0.9408    11.0481     0.8059 F       
  29 F29            2.0861    11.1247    -1.1737 F       
  30 F30            3.6677    10.4397     1.0510 F       
  31 F31            3.4267     8.7597    -0.4839 F       
  32 C32           -5.8973     5.7597    -0.3999 C.3     
  33 Br33           5.8610     2.9660    -0.2763 Br      
  34 H34           -0.4325    -0.3869     0.8193 H       
  35 H35           -0.4982    -0.3705    -0.9688 H       
  36 H36            1.7925    -0.9455     0.7331 H       
  37 H37            1.7268    -0.9291    -1.0564 H       
  38 H38            4.3122     0.4505    -0.2431 H       
  39 H39            3.4146     4.6189    -0.1716 H       
  40 H40            1.0160     4.1064    -0.0882 H       
  41 H41           -3.6029     7.2655     0.2387 H       
  42 H42           -1.3414     7.7568    -1.1137 H       
  43 H43           -0.5789     5.2399     2.2559 H       
  44 H44            1.3983     6.5908     2.8193 H       
  45 H45           -6.4705     4.8649    -0.6424 H       
  46 H46           -6.2838     6.2008     0.5189 H       
  47 H47           -5.9856     6.4794    -1.2137 H       
@<TRIPOS>BOND
   1    1    2 1
   2    1    9 1
   3    1   10 am
   4    2    3 1
   5    2   34 1
   6    2   35 1
   7    3    4 1
   8    3   36 1
   9    3   37 1
  10    4    5 ar
  11    4    9 ar
  12    5    6 ar
  13    5   38 1
  14    6    7 ar
  15    6   33 1
  16    7    8 ar
  17    7   39 1
  18    8    9 ar
  19    8   40 1
  20   10   11 2
  21   10   12 1
  22   12   14 2
  23   13   14 1
  24   13   17 1
  25   14   15 1
  26   15   16 1
  27   15   25 1
  28   16   17 2
  29   16   41 1
  30   17   32 1
  31   18   19 1
  32   18   23 1
  33   19   20 1
  34   19   30 1
  35   19   31 1
  36   20   21 1
  37   20   28 1
  38   20   29 1
  39   21   22 1
  40   22   23 ar
  41   22   24 ar
  42   23   27 ar
  43   24   25 ar
  44   24   42 1
  45   25   26 ar
  46   26   27 ar
  47   26   43 1
  48   27   44 1
  49   32   45 1
  50   32   46 1
  51   32   47 1

#	End of record

