#	Name: ASD04910215
#	Creating user name:	WinNT
#	Creation time:	15. 06. 2019 20:55

#	Modifying user name:	WinNT
#	Modification time:	15. 06. 2019 20:55

#	Program:	/corina/corina34_cracker 3.40 0067  02.08.2006

@<TRIPOS>MOLECULE
ASD04910215
  54   56    0    0    0
SMALL
NO_CHARGES


@<TRIPOS>ATOM
   1 C1            -0.2696     1.4346     0.2407 C.2     
   2 C2            -0.2092    -0.0707     0.2046 C.3     
   3 C3             1.2517    -0.5212     0.1428 C.3     
   4 O4             0.7510     2.0809     0.2193 O.2     
   5 O5            -1.4575     2.0576     0.2911 O.3     
   6 C6             2.5030    -2.6100     0.0515 C.2     
   7 C7             2.5622    -4.0868     0.0160 C.ar    
   8 C8             3.7956    -4.7376    -0.0422 C.ar    
   9 C9             3.8439    -6.1160    -0.0745 C.ar    
  10 C10            2.6733    -6.8530    -0.0498 C.ar    
  11 C11            1.4474    -6.2141     0.0078 C.ar    
  12 C12            1.3853    -4.8365     0.0465 C.ar    
  13 O13            3.5298    -1.9598     0.0299 O.2     
  14 N14            1.3104    -1.9846     0.1077 N.am    
  15 C15            2.7337    -8.3584    -0.0865 C.3     
  16 C16            2.5544    -8.9106     1.3291 C.3     
  17 C17            2.7397   -10.4292     1.3114 C.3     
  18 C18            2.5604   -10.9814     2.7270 C.3     
  19 O19            1.6915    -8.8566    -0.9276 O.3     
  20 C20            1.9543    -9.9901    -1.6302 C.ar    
  21 C21            3.2168   -10.5631    -1.5752 C.ar    
  22 C22            3.4842   -11.7143    -2.2886 C.ar    
  23 C23            2.4896   -12.2988    -3.0613 C.ar    
  24 C24            1.2264   -11.7250    -3.1160 C.ar    
  25 C25            0.9584   -10.5770    -2.3977 C.ar    
  26 N26            1.9085   -14.0821    -4.5285 N.2     
  27 N27            2.7610   -13.4683    -3.7867 N.pl3   
  28 N28            3.8962   -14.0723    -3.8008 N.2     
  29 C29            3.8030   -15.1278    -4.5786 C.2     
  30 C30            2.4911   -15.1343    -5.0589 C.2     
  31 H31           -0.6764    -0.4748     1.1027 H       
  32 H32           -0.7391    -0.4346    -0.6757 H       
  33 H33            1.7188    -0.1172    -0.7553 H       
  34 H34            1.7816    -0.1573     1.0231 H       
  35 H35           -1.4457     3.0243     0.3128 H       
  36 H36            4.7101    -4.1634    -0.0622 H       
  37 H37            4.7976    -6.6208    -0.1196 H       
  38 H38            0.5373    -6.7953     0.0269 H       
  39 H39            0.4279    -4.3391     0.0960 H       
  40 H40            0.4910    -2.5034     0.1249 H       
  41 H41            3.7001    -8.6738    -0.4798 H       
  42 H42            3.2954    -8.4618     1.9907 H       
  43 H43            1.5537    -8.6708     1.6886 H       
  44 H44            1.9987   -10.8779     0.6498 H       
  45 H45            3.7403   -10.6690     0.9519 H       
  46 H46            2.6924   -12.0633     2.7144 H       
  47 H47            3.3013   -10.5326     3.3886 H       
  48 H48            1.5597   -10.7416     3.0865 H       
  49 H49            3.9905   -10.1082    -0.9745 H       
  50 H50            4.4670   -12.1601    -2.2460 H       
  51 H51            0.4525   -12.1793    -3.7168 H       
  52 H52           -0.0255   -10.1332    -2.4364 H       
  53 H53            4.5809   -15.8432    -4.8009 H       
  54 H54            2.0469   -15.8556    -5.7288 H       
@<TRIPOS>BOND
   1    1    2 1
   2    1    4 2
   3    1    5 1
   4    2    3 1
   5    2   31 1
   6    2   32 1
   7    3   14 1
   8    3   33 1
   9    3   34 1
  10    5   35 1
  11    6    7 1
  12    6   13 2
  13    6   14 am
  14    7    8 ar
  15    7   12 ar
  16    8    9 ar
  17    8   36 1
  18    9   10 ar
  19    9   37 1
  20   10   11 ar
  21   10   15 1
  22   11   12 ar
  23   11   38 1
  24   12   39 1
  25   14   40 1
  26   15   16 1
  27   15   19 1
  28   15   41 1
  29   16   17 1
  30   16   42 1
  31   16   43 1
  32   17   18 1
  33   17   44 1
  34   17   45 1
  35   18   46 1
  36   18   47 1
  37   18   48 1
  38   19   20 1
  39   20   21 ar
  40   20   25 ar
  41   21   22 ar
  42   21   49 1
  43   22   23 ar
  44   22   50 1
  45   23   24 ar
  46   23   27 1
  47   24   25 ar
  48   24   51 1
  49   25   52 1
  50   26   27 1
  51   26   30 2
  52   27   28 1
  53   28   29 2
  54   29   30 1
  55   29   53 1
  56   30   54 1

#	End of record

