#	Name: ASD03090482
#	Creating user name:	WinNT
#	Creation time:	15. 06. 2019 20:28

#	Modifying user name:	WinNT
#	Modification time:	15. 06. 2019 20:28

#	Program:	/corina/corina34_cracker 3.40 0067  02.08.2006

@<TRIPOS>MOLECULE
ASD03090482
  42   44    0    0    0
SMALL
NO_CHARGES


@<TRIPOS>ATOM
   1 C1             0.0111     1.5181    -0.1029 C.2     
   2 C2             0.0369     0.0119    -0.1438 C.3     
   3 O3             1.0509     2.1419    -0.0768 O.2     
   4 N4            -1.1674     2.1721    -0.1009 N.am    
   5 C5            -1.1949     3.5604     0.0422 C.ar    
   6 C6            -2.4024     4.2394    -0.0726 C.ar    
   7 C7            -2.4183     5.6152     0.0710 C.ar    
   8 C8            -1.2160     6.2694     0.3264 C.ar    
   9 C9            -0.0507     5.5269     0.4278 C.ar    
  10 N10           -0.0723     4.2148     0.2908 N.ar    
  11 O11           -1.1858     7.6209     0.4740 O.3     
  12 C12           -2.4123     8.3239     0.2649 C.3     
  13 C13           -2.3669     9.6606     1.0078 C.3     
  14 C14           -2.6057     8.5782    -1.2313 C.3     
  15 N15            4.3477    -1.3652    -2.3450 N.pl3   
  16 C16            5.5327    -1.7782    -1.7998 C.2     
  17 C17            5.4417    -1.7874    -0.4605 C.2     
  18 C18            4.0876    -1.3440    -0.1203 C.ar    
  19 C19            3.4028    -1.1503     1.0811 C.ar    
  20 C20            2.1072    -0.7172     1.0611 C.ar    
  21 C21            1.4660    -0.4662    -0.1444 C.ar    
  22 C22            2.1228    -0.6503    -1.3412 C.ar    
  23 C23            3.4422    -1.0917    -1.3445 C.ar    
  24 H24           -0.4784    -0.3842     0.7313 H       
  25 H25           -0.4629    -0.3357    -1.0479 H       
  26 H26           -1.9964     1.6781    -0.1988 H       
  27 H27           -3.3165     3.6998    -0.2716 H       
  28 H28           -3.3417     6.1690    -0.0135 H       
  29 H29            0.8856     6.0276     0.6254 H       
  30 H30           -3.2423     7.7265     0.6423 H       
  31 H31           -1.5368    10.2580     0.6305 H       
  32 H32           -3.3024    10.1969     0.8484 H       
  33 H33           -2.2291     9.4795     2.0738 H       
  34 H34           -3.5412     9.1144    -1.3907 H       
  35 H35           -1.7757     9.1755    -1.6086 H       
  36 H36           -2.6381     7.6258    -1.7605 H       
  37 H37            4.1728    -1.2747    -3.2948 H       
  38 H38            6.4111    -2.0560    -2.3634 H       
  39 H39            6.2192    -2.0684     0.2344 H       
  40 H40            3.8952    -1.3435     2.0227 H       
  41 H41            1.5779    -0.5679     1.9906 H       
  42 H42            1.6153    -0.4527    -2.2738 H       
@<TRIPOS>BOND
   1    1    2 1
   2    1    3 2
   3    1    4 am
   4    2   21 1
   5    2   24 1
   6    2   25 1
   7    4    5 1
   8    4   26 1
   9    5    6 ar
  10    5   10 ar
  11    6    7 ar
  12    6   27 1
  13    7    8 ar
  14    7   28 1
  15    8    9 ar
  16    8   11 1
  17    9   10 ar
  18    9   29 1
  19   11   12 1
  20   12   13 1
  21   12   14 1
  22   12   30 1
  23   13   31 1
  24   13   32 1
  25   13   33 1
  26   14   34 1
  27   14   35 1
  28   14   36 1
  29   15   16 1
  30   15   23 1
  31   15   37 1
  32   16   17 2
  33   16   38 1
  34   17   18 1
  35   17   39 1
  36   18   19 ar
  37   18   23 ar
  38   19   20 ar
  39   19   40 1
  40   20   21 ar
  41   20   41 1
  42   21   22 ar
  43   22   23 ar
  44   22   42 1

#	End of record

