#	Name: ASD01148168
#	Creating user name:	WinNT
#	Creation time:	15. 06. 2019 19:02

#	Modifying user name:	WinNT
#	Modification time:	15. 06. 2019 19:02

#	Program:	/corina/corina34_cracker 3.40 0067  02.08.2006

@<TRIPOS>MOLECULE
ASD01148168
  55   58    0    0    0
SMALL
NO_CHARGES


@<TRIPOS>ATOM
   1 C1             0.0858     2.6497     0.7014 C.ar    
   2 C2            -0.3621     1.3433     0.7606 C.ar    
   3 C3             0.5222     0.2997     0.5611 C.ar    
   4 C4             1.8544     0.5626     0.3021 C.ar    
   5 C5             2.3021     1.8690     0.2420 C.ar    
   6 C6             1.4181     2.9125     0.4429 C.ar    
   7 C7             3.7545     2.1556    -0.0399 C.3     
   8 O8             4.3248     1.1415    -0.8919 O.3     
   9 C9             3.9096     3.4239    -0.9125 C.3     
  10 C10            3.9695     2.8528    -2.3165 C.2     
  11 N11            4.1983     1.5854    -2.2283 N.2     
  12 C12            3.7960     3.6152    -3.5684 C.ar    
  13 C13            3.8757     2.9620    -4.8010 C.ar    
  14 C14            3.5464     4.9892    -3.5208 C.ar    
  15 C15            3.3842     5.7001    -4.6882 C.ar    
  16 C16            3.4692     5.0478    -5.9210 C.ar    
  17 C17            3.7135     3.6729    -5.9685 C.ar    
  18 C18            3.2951     5.8107    -7.1738 C.2     
  19 O19            2.2733     6.4400    -7.3650 O.2     
  20 N20            4.2697     5.8089    -8.1048 N.am    
  21 C21            4.5469     2.2857     1.2625 C.3     
  22 F22            4.4426     1.0969     1.9926 F       
  23 F23            5.8915     2.5351     0.9673 F       
  24 F24            4.0313     3.3440     2.0183 F       
  25 C25            4.0442     6.4504    -9.4024 C.3     
  26 C26            4.4650     7.8955    -9.3284 C.ar    
  27 N27            3.6182     8.7983    -8.8739 N.ar    
  28 C28            5.4516     5.2171    -7.8419 C.2     
  29 C29            3.9427    10.0739    -8.7912 C.ar    
  30 C30            5.1935    10.5119    -9.1825 C.ar    
  31 C31            6.1111     9.5914    -9.6659 C.ar    
  32 C32            5.7361     8.2585    -9.7324 C.ar    
  33 O33            5.6787     4.7806    -6.7314 O.2     
  34 O34            6.3805     5.1096    -8.8101 O.3     
  35 C35            7.6301     4.4606    -8.4557 C.3     
  36 H36           -0.6060     3.4651     0.8528 H       
  37 H37           -1.4029     1.1379     0.9629 H       
  38 H38            0.1724    -0.7210     0.6080 H       
  39 H39            2.5455    -0.2528     0.1470 H       
  40 H40            1.7678     3.9332     0.3956 H       
  41 H41            3.0467     4.0801    -0.7982 H       
  42 H42            4.8324     3.9505    -0.6693 H       
  43 H43            4.0650     1.8993    -4.8377 H       
  44 H44            3.4804     5.4933    -2.5679 H       
  45 H45            3.1909     6.7621    -4.6513 H       
  46 H46            3.7792     3.1687    -6.9213 H       
  47 H47            4.6302     5.9400   -10.1667 H       
  48 H48            2.9859     6.3927    -9.6572 H       
  49 H49            3.2223    10.7845    -8.4137 H       
  50 H50            5.4530    11.5580    -9.1131 H       
  51 H51            7.0960     9.9049    -9.9793 H       
  52 H52            6.4253     7.5143   -10.1032 H       
  53 H53            8.2881     4.4402    -9.3244 H       
  54 H54            8.1107     5.0137    -7.6488 H       
  55 H55            7.4295     3.4406    -8.1278 H       
@<TRIPOS>BOND
   1    1    2 ar
   2    1    6 ar
   3    1   36 1
   4    2    3 ar
   5    2   37 1
   6    3    4 ar
   7    3   38 1
   8    4    5 ar
   9    4   39 1
  10    5    6 ar
  11    5    7 1
  12    6   40 1
  13    7    8 1
  14    7    9 1
  15    7   21 1
  16    8   11 1
  17    9   10 1
  18    9   41 1
  19    9   42 1
  20   10   11 2
  21   10   12 1
  22   12   13 ar
  23   12   14 ar
  24   13   17 ar
  25   13   43 1
  26   14   15 ar
  27   14   44 1
  28   15   16 ar
  29   15   45 1
  30   16   17 ar
  31   16   18 1
  32   17   46 1
  33   18   19 2
  34   18   20 am
  35   20   25 1
  36   20   28 am
  37   21   22 1
  38   21   23 1
  39   21   24 1
  40   25   26 1
  41   25   47 1
  42   25   48 1
  43   26   27 ar
  44   26   32 ar
  45   27   29 ar
  46   28   33 2
  47   28   34 1
  48   29   30 ar
  49   29   49 1
  50   30   31 ar
  51   30   50 1
  52   31   32 ar
  53   31   51 1
  54   32   52 1
  55   34   35 1
  56   35   53 1
  57   35   54 1
  58   35   55 1

#	End of record

