#	Name: ASD04590631
#	Creating user name:	WinNT
#	Creation time:	15. 06. 2019 20:51

#	Modifying user name:	WinNT
#	Modification time:	15. 06. 2019 20:51

#	Program:	/corina/corina34_cracker 3.40 0067  02.08.2006

@<TRIPOS>MOLECULE
ASD04590631
  71   76    0    0    0
SMALL
NO_CHARGES


@<TRIPOS>ATOM
   1 N1            -4.4357    -3.8501     1.7417 N.ar    
   2 C2            -3.1684    -3.4906     1.9009 C.ar    
   3 N3            -2.2112    -4.3676     2.1566 N.ar    
   4 C4            -2.4913    -5.6629     2.2653 C.ar    
   5 C5            -3.8287    -6.0770     2.1019 C.ar    
   6 C6            -4.8006    -5.1183     1.8337 C.ar    
   7 N7            -1.7219    -6.7714     2.5185 N.pl3   
   8 C8            -2.5058    -7.9122     2.5289 C.ar    
   9 C9            -3.8364    -7.5355     2.2731 C.ar    
  10 C10           -2.2259    -9.2573     2.7320 C.ar    
  11 N11           -3.1876   -10.1565     2.6848 N.ar    
  12 C12           -4.4471    -9.8358     2.4469 C.ar    
  13 C13           -4.8180    -8.5250     2.2338 C.ar    
  14 N14           -2.8358    -2.1503     1.7952 N.pl3   
  15 C15           -3.8069    -1.2171     1.4310 C.ar    
  16 C16           -0.2747    -6.7499     2.7453 C.3     
  17 C17            0.4394    -6.1027     1.5408 C.3     
  18 C18            0.0539    -5.8793     3.9708 C.3     
  19 C19            0.9562    -4.7335     3.4682 C.3     
  20 C20            0.6248    -4.6230     1.9592 C.3     
  21 N21           -5.0168    -1.6217     1.0814 N.ar    
  22 N22           -5.9405    -0.7989     0.7392 N.ar    
  23 C23           -5.7446     0.5093     0.7131 C.ar    
  24 C24           -4.4996     1.0324     1.0658 C.ar    
  25 C25           -3.5057     0.1456     1.4402 C.ar    
  26 N26           -6.7786     1.3627     0.3341 N.3     
  27 C27           -6.3694     2.2204    -0.7854 C.3     
  28 C28           -7.4726     3.2397    -1.0786 C.3     
  29 C29           -7.9929     0.6048     0.0061 C.3     
  30 C30           -9.1446     1.5759    -0.2634 C.3     
  31 C31           -8.7666     2.4983    -1.4257 C.3     
  32 N32           -9.8442     3.4709    -1.6511 N.3     
  33 C33           -9.5145     4.3740    -2.7617 C.3     
  34 C34          -11.1253     2.7918    -1.8873 C.3     
  35 C35          -11.0092     1.9001    -3.1252 C.3     
  36 C36          -10.5076     5.5377    -2.7849 C.3     
  37 H37           -5.8340    -5.4041     1.7038 H       
  38 H38           -1.2110    -9.5689     2.9301 H       
  39 H39           -5.1974   -10.6121     2.4188 H       
  40 H40           -5.8493    -8.2696     2.0398 H       
  41 H41           -1.9276    -1.8603     1.9745 H       
  42 H42            0.0941    -7.7642     2.8981 H       
  43 H43            1.4069    -6.5755     1.3718 H       
  44 H44           -0.1811    -6.1716     0.6473 H       
  45 H45           -0.8634    -5.4728     4.3968 H       
  46 H46            0.5829    -6.4709     4.7180 H       
  47 H47            0.7129    -3.8031     3.9814 H       
  48 H48            2.0072    -4.9851     3.6105 H       
  49 H49            1.4520    -4.1682     1.4143 H       
  50 H50           -0.2959    -4.0600     1.8062 H       
  51 H51           -4.3188     2.0971     1.0509 H       
  52 H52           -2.5241     0.4966     1.7226 H       
  53 H53           -5.4504     2.7450    -0.5240 H       
  54 H54           -6.1979     1.6064    -1.6696 H       
  55 H55           -7.6350     3.8631    -0.1994 H       
  56 H56           -7.1752     3.8660    -1.9196 H       
  57 H57           -7.8138    -0.0016    -0.8818 H       
  58 H58           -8.2531    -0.0439     0.8424 H       
  59 H59          -10.0418     1.0136    -0.5221 H       
  60 H60           -9.3333     2.1732     0.6286 H       
  61 H61           -8.6157     1.9049    -2.3275 H       
  62 H62           -8.5044     4.7610    -2.6277 H       
  63 H63           -9.5725     3.8281    -3.7034 H       
  64 H64          -11.3773     2.1800    -1.0211 H       
  65 H65          -11.9065     3.5351    -2.0468 H       
  66 H66          -11.9421     1.3551    -3.2691 H       
  67 H67          -10.8107     2.5182    -4.0008 H       
  68 H68          -10.1921     1.1920    -2.9875 H       
  69 H69          -11.5204     5.1489    -2.8903 H       
  70 H70          -10.4295     6.1006    -1.8547 H       
  71 H71          -10.2804     6.1926    -3.6260 H       
@<TRIPOS>BOND
   1    1    2 ar
   2    1    6 ar
   3    2    3 ar
   4    2   14 1
   5    3    4 ar
   6    4    5 ar
   7    4    7 1
   8    5    6 ar
   9    5    9 1
  10    6   37 1
  11    7    8 1
  12    7   16 1
  13    8    9 ar
  14    8   10 ar
  15    9   13 ar
  16   10   11 ar
  17   10   38 1
  18   11   12 ar
  19   12   13 ar
  20   12   39 1
  21   13   40 1
  22   14   15 1
  23   14   41 1
  24   15   21 ar
  25   15   25 ar
  26   16   18 1
  27   16   17 1
  28   16   42 1
  29   17   20 1
  30   17   43 1
  31   17   44 1
  32   18   19 1
  33   18   45 1
  34   18   46 1
  35   19   20 1
  36   19   47 1
  37   19   48 1
  38   20   49 1
  39   20   50 1
  40   21   22 ar
  41   22   23 ar
  42   23   24 ar
  43   23   26 1
  44   24   25 ar
  45   24   51 1
  46   25   52 1
  47   26   29 1
  48   26   27 1
  49   27   28 1
  50   27   53 1
  51   27   54 1
  52   28   31 1
  53   28   55 1
  54   28   56 1
  55   29   30 1
  56   29   57 1
  57   29   58 1
  58   30   31 1
  59   30   59 1
  60   30   60 1
  61   31   32 1
  62   31   61 1
  63   32   33 1
  64   32   34 1
  65   33   36 1
  66   33   62 1
  67   33   63 1
  68   34   35 1
  69   34   64 1
  70   34   65 1
  71   35   66 1
  72   35   67 1
  73   35   68 1
  74   36   69 1
  75   36   70 1
  76   36   71 1

#	End of record

