#	Name: ASD02508323
#	Creating user name:	WinNT
#	Creation time:	15. 06. 2019 20:24

#	Modifying user name:	WinNT
#	Modification time:	15. 06. 2019 20:24

#	Program:	/corina/corina34_cracker 3.40 0067  02.08.2006

@<TRIPOS>MOLECULE
ASD02508323
  39   40    0    0    0
SMALL
NO_CHARGES


@<TRIPOS>ATOM
   1 C1            -0.0168     1.3851     0.0097 C.ar    
   2 C2             0.0021    -0.0041     0.0020 C.ar    
   3 C3            -1.1930    -0.7117     0.0096 C.ar    
   4 C4            -2.3958    -0.0327     0.0247 C.ar    
   5 C5            -2.4109     1.3498     0.0322 C.ar    
   6 C6            -1.2226     2.0575     0.0305 C.ar    
   7 S7            -3.9475     2.2119     0.0515 S.o2    
   8 O8            -3.6910     3.5011    -0.4885 O.2     
   9 O9            -4.9141     1.3213    -0.4886 O.2     
  10 C10           -4.3863     2.4581     1.7401 C.ar    
  11 C11           -3.9726     3.5987     2.4025 C.ar    
  12 C12           -4.3169     3.7918     3.7273 C.ar    
  13 C13           -5.0752     2.8445     4.3896 C.ar    
  14 C14           -5.4896     1.7043     3.7269 C.ar    
  15 C15           -5.1490     1.5133     2.4008 C.ar    
  16 N16            1.2201    -0.6875    -0.0137 N.am    
  17 C17            1.7923    -1.1355    -1.2857 C.3     
  18 S18            2.0175    -0.9913     1.4056 S.o2    
  19 C19            1.3806    -2.6013     1.9469 C.3     
  20 O20            3.3824    -1.0973     1.0249 O.2     
  21 O21            1.5790     0.0384     2.2812 O.2     
  22 C22            1.2774     2.1571     0.0014 C.3     
  23 F23            1.0023     3.5288     0.0114 F       
  24 F24            2.0266     1.8235     1.1348 F       
  25 F25            2.0048     1.8358    -1.1496 F       
  26 H26           -1.1819    -1.7916     0.0033 H       
  27 H27           -3.3254    -0.5824     0.0302 H       
  28 H28           -1.2379     3.1374     0.0365 H       
  29 H29           -3.3802     4.3388     1.8851 H       
  30 H30           -3.9931     4.6826     4.2451 H       
  31 H31           -5.3435     2.9950     5.4248 H       
  32 H32           -6.0817     0.9641     4.2444 H       
  33 H33           -5.4727     0.6225     1.8831 H       
  34 H34            2.4342    -0.3534    -1.6909 H       
  35 H35            2.3796    -2.0390    -1.1218 H       
  36 H36            0.9887    -1.3476    -1.9909 H       
  37 H37            1.5999    -3.3525     1.1881 H       
  38 H38            1.8570    -2.8834     2.8858 H       
  39 H39            0.3024    -2.5353     2.0920 H       
@<TRIPOS>BOND
   1    1    2 ar
   2    1   22 1
   3    1    6 ar
   4    2    3 ar
   5    2   16 1
   6    3    4 ar
   7    3   26 1
   8    4    5 ar
   9    4   27 1
  10    5    6 ar
  11    5    7 1
  12    6   28 1
  13    7    8 2
  14    7    9 2
  15    7   10 1
  16   10   11 ar
  17   10   15 ar
  18   11   12 ar
  19   11   29 1
  20   12   13 ar
  21   12   30 1
  22   13   14 ar
  23   13   31 1
  24   14   15 ar
  25   14   32 1
  26   15   33 1
  27   16   17 1
  28   16   18 am
  29   17   34 1
  30   17   35 1
  31   17   36 1
  32   18   19 1
  33   18   20 2
  34   18   21 2
  35   19   37 1
  36   19   38 1
  37   19   39 1
  38   22   23 1
  39   22   24 1
  40   22   25 1

#	End of record

