#	Name: ASD03540156
#	Creating user name:	WinNT
#	Creation time:	15. 06. 2019 20:42

#	Modifying user name:	WinNT
#	Modification time:	15. 06. 2019 20:42

#	Program:	/corina/corina34_cracker 3.40 0067  02.08.2006

@<TRIPOS>MOLECULE
ASD03540156
  47   51    0    0    0
SMALL
NO_CHARGES


@<TRIPOS>ATOM
   1 C1            -0.0161     1.3365     0.0094 C.2     
   2 N2             0.0021    -0.0041     0.0020 N.am    
   3 C3             1.1931    -0.7075    -0.0132 C.2     
   4 C4             2.3928    -0.0051    -0.0209 C.2     
   5 C5             2.3194     1.4734    -0.0115 C.2     
   6 N6             1.1110     2.0661     0.0025 N.am    
   7 C7             3.5129    -0.8381    -0.0361 C.2     
   8 C8             3.2256    -2.1516    -0.0404 C.2     
   9 S9             1.4874    -2.3902    -0.0250 S.3     
  10 C10            4.2183    -3.2259    -0.0565 C.2     
  11 O11            5.4048    -2.9577    -0.0671 O.2     
  12 O12            3.8179    -4.5143    -0.0595 O.3     
  13 O13            3.3358     2.1426    -0.0175 O.2     
  14 O14           -1.0880     1.9101     0.0175 O.2     
  15 C15            1.0243     3.5285     0.0113 C.3     
  16 C16            1.0082     4.0223     1.4350 C.ar    
  17 C17            2.1958     4.3196     2.0769 C.ar    
  18 C18            2.1810     4.7725     3.3829 C.ar    
  19 C19            0.9786     4.9284     4.0468 C.ar    
  20 C20           -0.2091     4.6319     3.4046 C.ar    
  21 C21           -0.1945     4.1832     2.0972 C.ar    
  22 C22            4.8413    -5.5116    -0.0754 C.3     
  23 O23            2.4844   -10.6084    -0.3403 O.3     
  24 C24            2.7954   -10.8804    -1.7196 C.3     
  25 O25            2.9384    -9.5716    -2.3026 O.3     
  26 C26            3.3276    -8.7571    -1.2788 C.ar    
  27 C27            3.0484    -9.3947    -0.0720 C.ar    
  28 C28            3.9079    -7.4995    -1.2753 C.ar    
  29 C29            4.2094    -6.8798    -0.0765 C.ar    
  30 C30            3.9329    -7.5125     1.1207 C.ar    
  31 C31            3.3531    -8.7679     1.1249 C.ar    
  32 H32           -0.8370    -0.4906     0.0078 H       
  33 H33            4.5244    -0.4597    -0.0438 H       
  34 H34            1.8863     3.9467    -0.5086 H       
  35 H35            0.1095     3.8412    -0.4921 H       
  36 H36            3.1352     4.1978     1.5582 H       
  37 H37            3.1089     5.0042     3.8847 H       
  38 H38            0.9670     5.2816     5.0674 H       
  39 H39           -1.1485     4.7534     3.9234 H       
  40 H40           -1.1226     3.9550     1.5942 H       
  41 H41            5.4510    -5.3923    -0.9710 H       
  42 H42            5.4691    -5.4021     0.8089 H       
  43 H43            3.7281   -11.4390    -1.7990 H       
  44 H44            1.9801   -11.4249    -2.1959 H       
  45 H45            4.1257    -7.0030    -2.2093 H       
  46 H46            4.1698    -7.0253     2.0550 H       
  47 H47            3.1375    -9.2598     2.0619 H       
@<TRIPOS>BOND
   1    1    2 am
   2    1    6 am
   3    1   14 2
   4    2    3 1
   5    2   32 1
   6    3    4 2
   7    3    9 1
   8    4    5 1
   9    4    7 1
  10    5    6 am
  11    5   13 2
  12    6   15 1
  13    7    8 2
  14    7   33 1
  15    8    9 1
  16    8   10 1
  17   10   11 2
  18   10   12 1
  19   12   22 1
  20   15   16 1
  21   15   34 1
  22   15   35 1
  23   16   17 ar
  24   16   21 ar
  25   17   18 ar
  26   17   36 1
  27   18   19 ar
  28   18   37 1
  29   19   20 ar
  30   19   38 1
  31   20   21 ar
  32   20   39 1
  33   21   40 1
  34   22   29 1
  35   22   41 1
  36   22   42 1
  37   23   24 1
  38   23   27 1
  39   24   25 1
  40   24   43 1
  41   24   44 1
  42   25   26 1
  43   26   27 ar
  44   26   28 ar
  45   27   31 ar
  46   28   29 ar
  47   28   45 1
  48   29   30 ar
  49   30   31 ar
  50   30   46 1
  51   31   47 1

#	End of record

