#	Name: ASD05273001
#	Creating user name:	WinNT
#	Creation time:	15. 06. 2019 20:58

#	Modifying user name:	WinNT
#	Modification time:	15. 06. 2019 20:58

#	Program:	/corina/corina34_cracker 3.40 0067  02.08.2006

@<TRIPOS>MOLECULE
ASD05273001
   9    8    0    0    0
SMALL
NO_CHARGES


@<TRIPOS>ATOM
   1 S1            -0.0225     1.8097     0.0120 S.3     
   2 C2             0.0021    -0.0041     0.0020 C.3     
   3 C3             1.7392     2.2418    -0.0025 C.3     
   4 H4             0.5123    -0.3556    -0.8948 H       
   5 H5             0.5293    -0.3651     0.8851 H       
   6 H6            -1.0205    -0.3814     0.0098 H       
   7 H7             2.2229     1.8245     0.8807 H       
   8 H8             2.2059     1.8341    -0.8992 H       
   9 H9             1.8474     3.3264     0.0023 H       
@<TRIPOS>BOND
   1    1    2 1
   2    1    3 1
   3    2    4 1
   4    2    5 1
   5    2    6 1
   6    3    7 1
   7    3    8 1
   8    3    9 1

#	End of record

