#	Name: ASD06340012
#	Creating user name:	WinNT
#	Creation time:	15. 06. 2019 21:05

#	Modifying user name:	WinNT
#	Modification time:	15. 06. 2019 21:05

#	Program:	/corina/corina34_cracker 3.40 0067  02.08.2006

@<TRIPOS>MOLECULE
ASD06340012
  23   24    0    0    0
SMALL
NO_CHARGES


@<TRIPOS>ATOM
   1 C1            -0.0162     1.3406     0.0094 C.2     
   2 C2             0.0021    -0.0041     0.0020 C.2     
   3 C3             1.4223    -0.4120    -0.0137 C.2     
   4 N4             2.1844     0.6963    -0.0151 N.am    
   5 C5             1.3961     1.7864    -0.0017 C.2     
   6 O6             1.7774     2.9388     0.0005 O.2     
   7 C7             3.6492     0.7138    -0.0290 C.3     
   8 C8             4.1379     0.7274    -1.4544 C.ar    
   9 C9             4.3478     1.9307    -2.1017 C.ar    
  10 C10            4.7961     1.9432    -3.4093 C.ar    
  11 C11            5.0348     0.7524    -4.0695 C.ar    
  12 C12            4.8258    -0.4509    -3.4220 C.ar    
  13 C13            4.3817    -0.4633    -2.1129 C.ar    
  14 O14            1.8322    -1.5549    -0.0234 O.2     
  15 Br15          -1.5488     2.4482     0.0231 Br      
  16 H16           -0.8561    -0.6597     0.0070 H       
  17 H17            4.0068     1.6053     0.4863 H       
  18 H18            4.0280    -0.1745     0.4765 H       
  19 H19            4.1613     2.8611    -1.5859 H       
  20 H20            4.9594     2.8833    -3.9152 H       
  21 H21            5.3843     0.7622    -5.0913 H       
  22 H22            5.0120    -1.3812    -3.9379 H       
  23 H23            4.2183    -1.4034    -1.6070 H       
@<TRIPOS>BOND
   1    1    2 2
   2    1    5 1
   3    1   15 1
   4    2    3 1
   5    2   16 1
   6    3    4 am
   7    3   14 2
   8    4    5 am
   9    4    7 1
  10    5    6 2
  11    7    8 1
  12    7   17 1
  13    7   18 1
  14    8    9 ar
  15    8   13 ar
  16    9   10 ar
  17    9   19 1
  18   10   11 ar
  19   10   20 1
  20   11   12 ar
  21   11   21 1
  22   12   13 ar
  23   12   22 1
  24   13   23 1

#	End of record

