#	Name: ASD03330086
#	Creating user name:	WinNT
#	Creation time:	15. 06. 2019 20:36

#	Modifying user name:	WinNT
#	Modification time:	15. 06. 2019 20:36

#	Program:	/corina/corina34_cracker 3.40 0067  02.08.2006

@<TRIPOS>MOLECULE
ASD03330086
  71   75    0    0    0
SMALL
NO_CHARGES


@<TRIPOS>ATOM
   1 C1             1.6814     0.3818    -1.0410 C.2     
   2 C2             1.3116    -0.6933    -0.2897 C.2     
   3 C3             3.0292     0.6736    -1.0055 C.2     
   4 C4             3.7713    -0.1739    -0.2148 C.2     
   5 S5             2.7184    -1.3823     0.5074 S.3     
   6 C6             5.2289    -0.0821    -0.0052 C.ar    
   7 C7             5.7554    -0.1124     1.2899 C.ar    
   8 C8             6.0894     0.0296    -1.0997 C.ar    
   9 C9             7.4508     0.1150    -0.8971 C.ar    
  10 C10            7.9662     0.0903     0.3882 C.ar    
  11 C11            7.1199    -0.0260     1.4783 C.ar    
  12 C12            3.6274     1.8036    -1.7557 C.ar    
  13 C13            3.4223     1.9156    -3.1306 C.ar    
  14 C14            4.3914     2.7595    -1.0866 C.ar    
  15 C15            4.9468     3.8095    -1.7861 C.ar    
  16 C16            4.7457     3.9160    -3.1580 C.ar    
  17 C17            3.9795     2.9672    -3.8262 C.ar    
  18 C18           -0.0575    -1.2003    -0.1646 C.2     
  19 O19           -0.9847    -0.4229    -0.0323 O.2     
  20 N20           -0.2902    -2.5275    -0.1963 N.am    
  21 C21           -1.6642    -3.0473    -0.1746 C.3     
  22 C22            0.8253    -3.4817    -0.2591 C.3     
  23 C23            0.6039    -4.4212    -1.4487 C.3     
  24 C24           -0.7753    -5.0735    -1.3287 C.3     
  25 C25           -1.8525    -3.9926    -1.3653 C.3     
  26 C26           -0.9828    -6.0244    -2.4793 C.ar    
  27 Cl27           4.6956    -0.2575     2.6571 Cl      
  28 Cl28           9.6813     0.1984     0.6336 Cl      
  29 C29           -0.8605    -5.8320    -0.0293 C.2     
  30 N30            0.0887    -6.7349     0.2875 N.am    
  31 O31           -1.7833    -5.6301     0.7314 O.2     
  32 S32            5.4563     5.2594    -4.0495 S.3     
  33 C33            4.9152     4.9503    -5.7531 C.3     
  34 C34            5.4595     6.0489    -6.6684 C.3     
  35 C35           -1.3636    -7.7685    -4.5903 C.ar    
  36 C36           -2.3843    -7.5457    -3.6851 C.ar    
  37 C37           -2.1940    -6.6735    -2.6297 C.ar    
  38 C38           -0.1543    -7.1153    -4.4430 C.ar    
  39 C39            0.0361    -6.2431    -3.3875 C.ar    
  40 C40            5.0031     5.7881    -8.1053 C.3     
  41 O41            5.5115     6.8142    -8.9601 O.3     
  42 H42            0.9757     0.9571    -1.6220 H       
  43 H43            5.6894     0.0487    -2.1028 H       
  44 H44            8.1169     0.2010    -1.7428 H       
  45 H45            7.5281    -0.0443     2.4780 H       
  46 H46            2.8276     1.1788    -3.6501 H       
  47 H47            4.5475     2.6774    -0.0211 H       
  48 H48            5.5382     4.5501    -1.2683 H       
  49 H49            3.8247     3.0518    -4.8917 H       
  50 H50           -1.8345    -3.5914     0.7544 H       
  51 H51           -2.3693    -2.2195    -0.2502 H       
  52 H52            1.7622    -2.9404    -0.3904 H       
  53 H53            0.8622    -4.0619     0.6628 H       
  54 H54            0.6576    -3.8520    -2.3768 H       
  55 H55            1.3729    -5.1937    -1.4502 H       
  56 H56           -2.8365    -4.4574    -1.3035 H       
  57 H57           -1.7728    -3.4310    -2.2961 H       
  58 H58            0.8621    -6.8473    -0.2870 H       
  59 H59           -0.0016    -7.2722     1.0901 H       
  60 H60            5.2916     3.9823    -6.0839 H       
  61 H61            3.8260     4.9499    -5.7940 H       
  62 H62            5.0831     7.0169    -6.3376 H       
  63 H63            6.5487     6.0493    -6.6275 H       
  64 H64           -1.5124    -8.4499    -5.4149 H       
  65 H65           -3.3292    -8.0560    -3.8002 H       
  66 H66           -2.9914    -6.4995    -1.9224 H       
  67 H67            0.6431    -7.2893    -5.1502 H       
  68 H68            0.9807    -5.7324    -3.2727 H       
  69 H69            5.3795     4.8201    -8.4360 H       
  70 H70            3.9139     5.7877    -8.1461 H       
  71 H71            5.2608     6.7127    -9.8885 H       
@<TRIPOS>BOND
   1    1    2 2
   2    1    3 1
   3    1   42 1
   4    2   18 1
   5    2    5 1
   6    3    4 2
   7    3   12 1
   8    4    5 1
   9    4    6 1
  10    6    7 ar
  11    6    8 ar
  12    7   27 1
  13    7   11 ar
  14    8    9 ar
  15    8   43 1
  16    9   10 ar
  17    9   44 1
  18   10   11 ar
  19   10   28 1
  20   11   45 1
  21   12   13 ar
  22   12   14 ar
  23   13   17 ar
  24   13   46 1
  25   14   15 ar
  26   14   47 1
  27   15   16 ar
  28   15   48 1
  29   16   17 ar
  30   16   32 1
  31   17   49 1
  32   18   19 2
  33   18   20 am
  34   20   21 1
  35   20   22 1
  36   21   25 1
  37   21   50 1
  38   21   51 1
  39   22   23 1
  40   22   52 1
  41   22   53 1
  42   23   24 1
  43   23   54 1
  44   23   55 1
  45   24   25 1
  46   24   26 1
  47   24   29 1
  48   25   56 1
  49   25   57 1
  50   26   37 ar
  51   26   39 ar
  52   29   30 am
  53   29   31 2
  54   30   58 1
  55   30   59 1
  56   32   33 1
  57   33   34 1
  58   33   60 1
  59   33   61 1
  60   34   40 1
  61   34   62 1
  62   34   63 1
  63   35   36 ar
  64   35   38 ar
  65   35   64 1
  66   36   37 ar
  67   36   65 1
  68   37   66 1
  69   38   39 ar
  70   38   67 1
  71   39   68 1
  72   40   41 1
  73   40   69 1
  74   40   70 1
  75   41   71 1

#	End of record

