#	Name: ASD01884163
#	Creating user name:	WinNT
#	Creation time:	15. 06. 2019 19:47

#	Modifying user name:	WinNT
#	Modification time:	15. 06. 2019 19:47

#	Program:	/corina/corina34_cracker 3.40 0067  02.08.2006

@<TRIPOS>MOLECULE
ASD01884163
  14   15    0    0    0
SMALL
NO_CHARGES


@<TRIPOS>ATOM
   1 C1            -0.0167     1.3793     0.0096 C.ar    
   2 C2             0.0021    -0.0041     0.0020 C.ar    
   3 C3            -1.1859    -0.7084     0.0100 C.ar    
   4 C4            -2.3989    -0.0014     0.0259 C.ar    
   5 C5            -2.3220     1.3933     0.0326 C.ar    
   6 N6            -1.1654     2.0295     0.0296 N.ar    
   7 N7            -3.6852    -0.5082     0.0364 N.am    
   8 C8            -4.7099     0.3501     0.0515 C.2     
   9 S9            -3.9952     1.9708     0.0529 S.3     
  10 O10           -5.8951     0.0736     0.0616 O.2     
  11 Cl11           1.4770     2.2639     0.0001 Cl      
  12 H12            0.9440    -0.5323    -0.0105 H       
  13 H13           -1.1819    -1.7883     0.0038 H       
  14 H14           -3.8407    -1.4656     0.0325 H       
@<TRIPOS>BOND
   1    1    2 ar
   2    1   11 1
   3    1    6 ar
   4    2    3 ar
   5    2   12 1
   6    3    4 ar
   7    3   13 1
   8    4    5 ar
   9    4    7 1
  10    5    6 ar
  11    5    9 1
  12    7    8 am
  13    7   14 1
  14    8    9 1
  15    8   10 2

#	End of record

