#	Name: ASD01200258
#	Creating user name:	WinNT
#	Creation time:	15. 06. 2019 19:08

#	Modifying user name:	WinNT
#	Modification time:	15. 06. 2019 19:08

#	Program:	/corina/corina34_cracker 3.40 0067  02.08.2006

@<TRIPOS>MOLECULE
ASD01200258
  33   34    0    0    0
SMALL
NO_CHARGES


@<TRIPOS>ATOM
   1 C1            -0.0184     1.5028     0.0103 C.2     
   2 C2             0.0021    -0.0041     0.0020 C.3     
   3 C3            -0.7241    -0.5171    -1.2431 C.3     
   4 O4             1.0232     2.1232     0.0037 O.2     
   5 N5            -1.1946     2.1607     0.0195 N.am    
   6 C6             1.4295    -0.4870    -0.0142 C.ar    
   7 C7             1.9019    -1.2811     1.0141 C.ar    
   8 C8             3.2117    -1.7249     0.9994 C.ar    
   9 C9             4.0494    -1.3734    -0.0458 C.ar    
  10 C10            3.5751    -0.5789    -1.0738 C.ar    
  11 C11            2.2641    -0.1405    -1.0601 C.ar    
  12 Cl12           5.6939    -1.9291    -0.0655 Cl      
  13 Cl13           3.8055    -2.7217     2.2908 Cl      
  14 C14           -0.8126    -2.0436    -1.1892 C.3     
  15 C15           -1.6098    -2.7444    -2.2912 C.3     
  16 C16           -0.0824    -2.8325    -2.2779 C.3     
  17 C17           -1.2129     3.5083     0.0269 C.2     
  18 N18           -2.3891     4.1663     0.0360 N.am    
  19 O19           -0.1687     4.1303     0.0253 O.2     
  20 H20           -0.4983    -0.3791     0.8948 H       
  21 H21           -1.7288    -0.0959    -1.2772 H       
  22 H22           -0.1736    -0.2164    -2.1345 H       
  23 H23           -2.0280     1.6644     0.0207 H       
  24 H24            1.2482    -1.5546     1.8292 H       
  25 H25            4.2279    -0.3043    -1.8892 H       
  26 H26            1.8929     0.4766    -1.8651 H       
  27 H27           -0.8466    -2.4775    -0.1899 H       
  28 H28           -2.1679    -3.6396    -2.0169 H       
  29 H29           -2.0711    -2.1179    -3.0546 H       
  30 H30            0.4611    -2.2640    -3.0326 H       
  31 H31            0.3644    -3.7856    -1.9949 H       
  32 H32           -3.2225     3.6699     0.0373 H       
  33 H33           -2.4022     5.1362     0.0414 H       
@<TRIPOS>BOND
   1    1    2 1
   2    1    4 2
   3    1    5 am
   4    2    3 1
   5    2    6 1
   6    2   20 1
   7    3   14 1
   8    3   21 1
   9    3   22 1
  10    5   17 am
  11    5   23 1
  12    6    7 ar
  13    6   11 ar
  14    7    8 ar
  15    7   24 1
  16    8    9 ar
  17    8   13 1
  18    9   10 ar
  19    9   12 1
  20   10   11 ar
  21   10   25 1
  22   11   26 1
  23   14   15 1
  24   14   16 1
  25   14   27 1
  26   15   16 1
  27   15   28 1
  28   15   29 1
  29   16   30 1
  30   16   31 1
  31   17   18 am
  32   17   19 2
  33   18   32 1
  34   18   33 1

#	End of record

