#	Name: ASD08170202
#	Creating user name:	WinNT
#	Creation time:	15. 06. 2019 21:17

#	Modifying user name:	WinNT
#	Modification time:	15. 06. 2019 21:17

#	Program:	/corina/corina34_cracker 3.40 0067  02.08.2006

@<TRIPOS>MOLECULE
ASD08170202
  70   73    0    0    0
SMALL
NO_CHARGES


@<TRIPOS>ATOM
   1 C1             0.9774     0.8634     1.5567 C.ar    
   2 C2             0.9049    -0.6351     1.4142 C.3     
   3 C3             0.6942    -1.2590     2.7698 C.2     
   4 N4             0.5982    -2.5982     2.8877 N.am    
   5 O5             0.6111    -0.5560     3.7546 O.2     
   6 C6             0.4038    -3.1739     4.1386 C.2     
   7 S7             0.2689    -4.8520     4.4554 S.3     
   8 N8             0.3000    -2.5287     5.2611 N.2     
   9 N9             0.1256    -3.2057     6.3124 N.2     
  10 C10            0.0677    -4.4919     6.1704 C.2     
  11 C11           -0.1311    -5.4998     7.2730 C.3     
  12 C12           -1.6268    -5.7608     7.4618 C.3     
  13 C13           -1.8286    -6.7841     8.5812 C.3     
  14 C14           -3.3243    -7.0451     8.7700 C.3     
  15 C15           -3.5231    -8.0530     9.8725 C.2     
  16 N16           -3.6764    -7.7882    11.1311 N.2     
  17 S17           -3.5964    -9.8049     9.6799 S.3     
  18 C18           -3.8234    -9.9619    11.3706 C.2     
  19 N19           -3.8300    -8.7765    11.9016 N.2     
  20 N20           -3.9801   -11.1597    12.0597 N.am    
  21 C21           -4.1520   -11.1506    13.3965 C.2     
  22 C22           -4.3219   -12.4485    14.1432 C.3     
  23 O23           -4.1700   -10.0978    13.9984 O.2     
  24 C24            2.1969     1.4779     1.7733 C.ar    
  25 C25            2.2659     2.8514     1.9043 C.ar    
  26 C26            1.1103     3.6142     1.8183 C.ar    
  27 C27           -0.1121     2.9952     1.6008 C.ar    
  28 C28           -0.1750     1.6219     1.4649 C.ar    
  29 C29           -4.4953   -12.1635    15.6128 C.ar    
  30 C30           -3.5442   -11.8331    17.7853 C.ar    
  31 C31           -3.3879   -12.0946    16.4378 C.ar    
  32 C32           -5.7611   -11.9658    16.1328 C.ar    
  33 C33           -5.9227   -11.7036    17.4795 C.ar    
  34 C34           -4.8136   -11.6391    18.3104 C.ar    
  35 O35           -4.9699   -11.3817    19.6358 O.3     
  36 C36           -5.5104   -12.3551    20.3862 C.2     
  37 C37           -5.6213   -12.1820    21.8791 C.3     
  38 O38           -5.9080   -13.3698    19.8645 O.2     
  39 O39            1.1756     4.9657     1.9472 O.3     
  40 C40            1.7497     5.6469     0.9426 C.2     
  41 C41            1.9814     7.1302     1.0737 C.3     
  42 O42            2.0805     5.0706    -0.0665 O.2     
  43 H43            0.0737    -0.8981     0.7600 H       
  44 H44            1.8362    -1.0047     0.9849 H       
  45 H45            0.6647    -3.1604     2.1000 H       
  46 H46            0.3697    -6.4311     7.0085 H       
  47 H47            0.2899    -5.1115     8.2004 H       
  48 H48           -2.1276    -4.8295     7.7262 H       
  49 H49           -2.0477    -6.1491     6.5343 H       
  50 H50           -1.3278    -7.7154     8.3167 H       
  51 H51           -1.4076    -6.3958     9.5086 H       
  52 H52           -3.8251    -6.1138     9.0344 H       
  53 H53           -3.7453    -7.4334     7.8425 H       
  54 H54           -3.9657   -12.0016    11.5783 H       
  55 H55           -5.2019   -12.9710    13.7681 H       
  56 H56           -3.4393   -13.0708    13.9954 H       
  57 H57            3.0961     0.8836     1.8406 H       
  58 H58            3.2186     3.3309     2.0738 H       
  59 H59           -1.0131     3.5868     1.5339 H       
  60 H60           -1.1264     1.1395     1.2953 H       
  61 H61           -2.6789   -11.7797    18.4293 H       
  62 H62           -2.3999   -12.2457    16.0286 H       
  63 H63           -6.6242   -12.0161    15.4856 H       
  64 H64           -6.9115   -11.5485    17.8851 H       
  65 H65           -5.2139   -11.2118    22.1636 H       
  66 H66           -6.6691   -12.2369    22.1744 H       
  67 H67           -5.0610   -12.9721    22.3790 H       
  68 H68            1.6210     7.4698     2.0448 H       
  69 H69            3.0475     7.3404     0.9879 H       
  70 H70            1.4431     7.6532     0.2833 H       
@<TRIPOS>BOND
   1    1    2 1
   2    1   24 ar
   3    1   28 ar
   4    2    3 1
   5    2   43 1
   6    2   44 1
   7    3    4 am
   8    3    5 2
   9    4    6 1
  10    4   45 1
  11    6    8 2
  12    6    7 1
  13    7   10 1
  14    8    9 1
  15    9   10 2
  16   10   11 1
  17   11   12 1
  18   11   46 1
  19   11   47 1
  20   12   13 1
  21   12   48 1
  22   12   49 1
  23   13   14 1
  24   13   50 1
  25   13   51 1
  26   14   15 1
  27   14   52 1
  28   14   53 1
  29   15   17 1
  30   15   16 2
  31   16   19 1
  32   17   18 1
  33   18   19 2
  34   18   20 1
  35   20   21 am
  36   20   54 1
  37   21   22 1
  38   21   23 2
  39   22   29 1
  40   22   55 1
  41   22   56 1
  42   24   25 ar
  43   24   57 1
  44   25   26 ar
  45   25   58 1
  46   26   27 ar
  47   26   39 1
  48   27   28 ar
  49   27   59 1
  50   28   60 1
  51   29   32 ar
  52   29   31 ar
  53   30   31 ar
  54   30   34 ar
  55   30   61 1
  56   31   62 1
  57   32   33 ar
  58   32   63 1
  59   33   34 ar
  60   33   64 1
  61   34   35 1
  62   35   36 1
  63   36   37 1
  64   36   38 2
  65   37   65 1
  66   37   66 1
  67   37   67 1
  68   39   40 1
  69   40   41 1
  70   40   42 2
  71   41   68 1
  72   41   69 1
  73   41   70 1

#	End of record

