#	Name: ASD03090192
#	Creating user name:	WinNT
#	Creation time:	15. 06. 2019 20:28

#	Modifying user name:	WinNT
#	Modification time:	15. 06. 2019 20:28

#	Program:	/corina/corina34_cracker 3.40 0067  02.08.2006

@<TRIPOS>MOLECULE
ASD03090192
  46   49    0    0    0
SMALL
NO_CHARGES


@<TRIPOS>ATOM
   1 N1             0.4507     1.5157     1.4709 N.ar    
   2 C2             0.4123     0.1975     1.4368 C.ar    
   3 C3             1.5385    -0.5363     1.1251 C.ar    
   4 C4             2.7312     0.1384     0.8432 C.ar    
   5 C5             2.7260     1.5366     0.8911 C.ar    
   6 C6             1.5541     2.1906     1.2119 C.ar    
   7 C7             3.9645    -0.6064     0.5042 C.2     
   8 N8             5.7414    -3.4558    -0.5337 N.pl3   
   9 C9             4.8140    -4.4451    -0.8769 C.ar    
  10 C10            3.5970    -4.0906    -1.4440 C.ar    
  11 C11            2.6826    -5.0692    -1.7822 C.ar    
  12 C12            2.9787    -6.4026    -1.5557 C.ar    
  13 C13            4.1918    -6.7585    -0.9903 C.ar    
  14 C14            5.1114    -5.7839    -0.6563 C.ar    
  15 N15            4.0280    -1.8624     0.1103 N.2     
  16 C16            5.2991    -2.2020    -0.1075 C.2     
  17 N17            6.0680    -1.1672     0.1441 N.2     
  18 N18            5.2238    -0.1166     0.5385 N.pl3   
  19 C19            5.6284     1.2390     0.9191 C.3     
  20 C20            5.7330     2.1108    -0.3338 C.3     
  21 C21            6.1492     3.5053     0.0578 C.2     
  22 F22            2.0826    -7.3581    -1.8864 F       
  23 O23            5.3375     4.5194     0.3722 O.3     
  24 N24            5.9940     5.5037     0.6397 N.2     
  25 C25            7.2621     5.2417     0.5309 C.2     
  26 N26            7.3771     3.9539     0.1607 N.2     
  27 C27            8.3959     6.2029     0.7793 C.3     
  28 C28            4.5109    -8.2107    -0.7446 C.3     
  29 F29            5.7823    -8.3182    -0.1709 F       
  30 F30            3.5597    -8.7566     0.1240 F       
  31 F31            4.4868    -8.9053    -1.9587 F       
  32 H32           -0.5131    -0.3143     1.6563 H       
  33 H33            1.4999    -1.6153     1.0993 H       
  34 H34            3.6257     2.0956     0.6805 H       
  35 H35            1.5400     3.2698     1.2511 H       
  36 H36            6.6918    -3.6409    -0.5917 H       
  37 H37            3.3653    -3.0505    -1.6202 H       
  38 H38            1.7360    -4.7940    -2.2232 H       
  39 H39            6.0575    -6.0619    -0.2158 H       
  40 H40            4.8866     1.6630     1.5959 H       
  41 H41            6.5967     1.2025     1.4182 H       
  42 H42            6.4748     1.6868    -1.0106 H       
  43 H43            4.7647     2.1473    -0.8329 H       
  44 H44            8.6953     6.1490     1.8260 H       
  45 H45            9.2421     5.9383     0.1453 H       
  46 H46            8.0704     7.2168     0.5464 H       
@<TRIPOS>BOND
   1    1    2 ar
   2    1    6 ar
   3    2    3 ar
   4    2   32 1
   5    3    4 ar
   6    3   33 1
   7    4    5 ar
   8    4    7 1
   9    5    6 ar
  10    5   34 1
  11    6   35 1
  12    7   15 2
  13    7   18 1
  14    8    9 1
  15    8   16 1
  16    8   36 1
  17    9   10 ar
  18    9   14 ar
  19   10   11 ar
  20   10   37 1
  21   11   12 ar
  22   11   38 1
  23   12   13 ar
  24   12   22 1
  25   13   14 ar
  26   13   28 1
  27   14   39 1
  28   15   16 1
  29   16   17 2
  30   17   18 1
  31   18   19 1
  32   19   20 1
  33   19   40 1
  34   19   41 1
  35   20   21 1
  36   20   42 1
  37   20   43 1
  38   21   23 1
  39   21   26 2
  40   23   24 1
  41   24   25 2
  42   25   26 1
  43   25   27 1
  44   27   44 1
  45   27   45 1
  46   27   46 1
  47   28   29 1
  48   28   30 1
  49   28   31 1

#	End of record

