#	Name: ASD01140485
#	Creating user name:	WinNT
#	Creation time:	15. 06. 2019 19:00

#	Modifying user name:	WinNT
#	Modification time:	15. 06. 2019 19:00

#	Program:	/corina/corina34_cracker 3.40 0067  02.08.2006

@<TRIPOS>MOLECULE
ASD01140485
  36   39    0    0    0
SMALL
NO_CHARGES


@<TRIPOS>ATOM
   1 N1            -0.0169     1.3919     0.0097 N.2     
   2 N2             0.0021    -0.0041     0.0020 N.pl3   
   3 C3             2.4006     0.0540    -0.0203 C.2     
   4 C4             2.3502     1.4125    -0.0128 C.2     
   5 C5             1.1061     2.0735     0.0026 C.2     
   6 C6            -0.9679    -0.9622     0.0054 C.2     
   7 N7            -0.3615    -2.1351    -0.0071 N.2     
   8 N8             0.9151    -1.9720    -0.0180 N.2     
   9 C9             1.1980    -0.6772    -0.0130 C.2     
  10 S10            1.0559     3.8347     0.0120 S.3     
  11 C11           -0.7224     4.1922     0.0304 C.3     
  12 C12           -0.9349     5.6841     0.0399 C.ar    
  13 C13           -1.2100     7.7327     1.2496 C.ar    
  14 C14           -1.0154     6.3628     1.2410 C.ar    
  15 C15           -1.0435     6.3744    -1.1531 C.ar    
  16 C16           -1.2375     7.7429    -1.1452 C.ar    
  17 C17           -1.3234     8.4221     0.0557 C.ar    
  18 C18           -2.4274    -0.7309     0.0210 C.ar    
  19 C19           -2.9497     0.5290    -0.2771 C.ar    
  20 N20           -4.2502     0.7350    -0.2631 N.ar    
  21 C21           -5.1049    -0.2267     0.0292 C.ar    
  22 C22           -4.6671    -1.5023     0.3362 C.ar    
  23 C23           -3.3099    -1.7728     0.3294 C.ar    
  24 Cl24          -1.3112     8.5860     2.7580 Cl      
  25 H25            3.3516    -0.4578    -0.0325 H       
  26 H26            3.2653     1.9860    -0.0182 H       
  27 H27           -1.1882     3.7645    -0.8574 H       
  28 H28           -1.1716     3.7555     0.9224 H       
  29 H29           -0.9267     5.8240     2.1728 H       
  30 H30           -0.9764     5.8441    -2.0916 H       
  31 H31           -1.3215     8.2817    -2.0775 H       
  32 H32           -1.4753     9.4914     0.0617 H       
  33 H33           -2.2815     1.3417    -0.5210 H       
  34 H34           -6.1638    -0.0143     0.0290 H       
  35 H35           -5.3774    -2.2804     0.5740 H       
  36 H36           -2.9410    -2.7612     0.5606 H       
@<TRIPOS>BOND
   1    1    2 1
   2    1    5 2
   3    2    6 1
   4    2    9 1
   5    3    4 2
   6    3    9 1
   7    3   25 1
   8    4    5 1
   9    4   26 1
  10    5   10 1
  11    6    7 2
  12    6   18 1
  13    7    8 1
  14    8    9 2
  15   10   11 1
  16   11   12 1
  17   11   27 1
  18   11   28 1
  19   12   15 ar
  20   12   14 ar
  21   13   14 ar
  22   13   17 ar
  23   13   24 1
  24   14   29 1
  25   15   16 ar
  26   15   30 1
  27   16   17 ar
  28   16   31 1
  29   17   32 1
  30   18   19 ar
  31   18   23 ar
  32   19   20 ar
  33   19   33 1
  34   20   21 ar
  35   21   22 ar
  36   21   34 1
  37   22   23 ar
  38   22   35 1
  39   23   36 1

#	End of record

