#	Name: ASD07301005
#	Creating user name:	WinNT
#	Creation time:	15. 06. 2019 21:10

#	Modifying user name:	WinNT
#	Modification time:	15. 06. 2019 21:10

#	Program:	/corina/corina34_cracker 3.40 0067  02.08.2006

@<TRIPOS>MOLECULE
ASD07301005
  23   24    0    0    0
SMALL
NO_CHARGES


@<TRIPOS>ATOM
   1 N1             0.1060     1.3210    -0.4044 N.pl3   
   2 N2             0.0754     0.0371    -0.4280 N.2     
   3 C3             1.1623    -0.4658     0.1015 C.2     
   4 C4             1.9734     0.5967     0.5063 C.2     
   5 C5             1.2734     1.7414     0.1708 C.2     
   6 C6            -0.8994     2.1616    -0.8976 C.ar    
   7 C7            -0.5652     3.2719    -1.6621 C.ar    
   8 C8            -1.5593     4.0988    -2.1474 C.ar    
   9 C9            -2.8861     3.8222    -1.8729 C.ar    
  10 C10           -3.2221     2.7174    -1.1120 C.ar    
  11 C11           -2.2332     1.8837    -0.6282 C.ar    
  12 B12            1.7282     3.2260     0.4032 Du      
  13 O13            0.7725     4.2756     0.3649 O.3     
  14 O14            3.0952     3.5192     0.6516 O.3     
  15 H15            1.3908    -1.5161     0.2071 H       
  16 H16            2.9417     0.5371     0.9809 H       
  17 H17            0.4708     3.4887    -1.8765 H       
  18 H18           -1.3001     4.9626    -2.7417 H       
  19 H19           -3.6616     4.4705    -2.2533 H       
  20 H20           -4.2593     2.5043    -0.8991 H       
  21 H21           -2.4965     1.0187    -0.0374 H       
  22 H22            1.1465     5.1539     0.5190 H       
  23 H23            3.2783     4.4597     0.7822 H       
@<TRIPOS>BOND
   1    1    2 1
   2    1    5 1
   3    1    6 1
   4    2    3 2
   5    3    4 1
   6    3   15 1
   7    4    5 2
   8    4   16 1
   9    5   12 1
  10    6    7 ar
  11    6   11 ar
  12    7    8 ar
  13    7   17 1
  14    8    9 ar
  15    8   18 1
  16    9   10 ar
  17    9   19 1
  18   10   11 ar
  19   10   20 1
  20   11   21 1
  21   12   13 1
  22   12   14 1
  23   13   22 1
  24   14   23 1

#	End of record

