#	Name: ASD06590036
#	Creating user name:	WinNT
#	Creation time:	15. 06. 2019 21:06

#	Modifying user name:	WinNT
#	Modification time:	15. 06. 2019 21:06

#	Program:	/corina/corina34_cracker 3.40 0067  02.08.2006

@<TRIPOS>MOLECULE
ASD06590036
 355  355    0    0    0
SMALL
NO_CHARGES


@<TRIPOS>ATOM
   1 C1           -11.1176     5.2397    -5.8614 C.2     
   2 O2           -11.7216     5.9484    -6.6384 O.2     
   3 N3            -9.1339     6.5198    -6.4367 N.3     
   4 C4            -9.7130     5.5984    -5.4500 C.3     
   5 C5            -9.7403     6.2728    -4.0769 C.3     
   6 C6            -8.3072     6.5243    -3.6036 C.3     
   7 C7            -8.3345     7.1987    -2.2306 C.3     
   8 N8            -6.9623     7.4395    -1.7774 N.pl3   
   9 C9            -6.7353     8.0398    -0.5620 C.2     
  10 N10           -7.7351     8.4985     0.1342 N.2     
  11 N11           -5.4461     8.1565    -0.0792 N.am    
  12 C12          -13.7090     2.9475    -4.6809 C.2     
  13 O13          -13.0820     2.6644    -3.6820 O.2     
  14 N14          -11.7047     4.1342    -5.3617 N.am    
  15 C15          -13.0723     3.7887    -5.7570 C.3     
  16 C16          -13.0406     3.0009    -7.0682 C.3     
  17 C17          -12.5095     3.8971    -8.1888 C.3     
  18 C18          -12.4783     3.1212    -9.4804 C.2     
  19 O19          -12.8434     1.9696    -9.5023 O.2     
  20 O20          -12.0449     3.7094   -10.6064 O.3     
  21 C21          -16.6858     0.8464    -4.3857 C.2     
  22 O22          -16.9235     0.9197    -5.5727 O.2     
  23 N23          -14.9751     2.5097    -4.8284 N.am    
  24 C24          -15.5940     1.6919    -3.7823 C.3     
  25 C25          -16.1900     2.6038    -2.7079 C.3     
  26 C26          -15.1073     3.5487    -2.1830 C.3     
  27 O27          -17.2577     3.3687    -3.2710 O.3     
  28 C28          -19.7155    -0.1934    -4.2972 C.2     
  29 O29          -19.8305     0.9455    -3.8966 O.2     
  30 N30          -17.3980     0.0088    -3.6062 N.am    
  31 C31          -18.3834    -0.8925    -4.2086 C.3     
  32 C32          -18.5225    -2.1473    -3.3442 C.3     
  33 C33          -17.2220    -2.9088    -3.3514 C.2     
  34 O34          -16.2529    -2.4486    -3.9170 O.2     
  35 N35          -17.1360    -4.1013    -2.7293 N.am    
  36 C36          -23.1789    -1.1790    -4.9270 C.2     
  37 O37          -22.9110    -2.3607    -4.8741 O.2     
  38 N38          -20.7791    -0.8339    -4.8216 N.am    
  39 C39          -22.0741    -0.1543    -4.9077 C.3     
  40 C40          -22.1287     0.6787    -6.1899 C.3     
  41 C41          -26.8708    -1.0794    -5.1105 C.2     
  42 O42          -26.9184     0.1317    -5.1537 O.2     
  43 N43          -24.4647    -0.7823    -5.0031 N.am    
  44 C44          -25.5387    -1.7785    -5.0219 C.3     
  45 C45          -30.3764    -2.0071    -4.6487 C.2     
  46 O46          -30.0873    -3.0992    -4.2074 O.2     
  47 N47          -28.0093    -1.8001    -5.1417 N.am    
  48 C48          -29.3043    -1.1205    -5.2278 C.3     
  49 C49          -29.6267    -0.8210    -6.6932 C.3     
  50 C50          -28.6078     0.1778    -7.2456 C.3     
  51 C51          -28.9302     0.4773    -8.7110 C.3     
  52 N52          -27.9547     1.4337    -9.2400 N.pl3   
  53 C53          -28.0433     1.8549   -10.5458 C.2     
  54 N54          -28.9953     1.4032   -11.3130 N.2     
  55 N55          -27.1278     2.7524   -11.0422 N.pl3   
  56 C56          -34.0311    -2.0856    -4.6616 C.2     
  57 O57          -34.1029    -1.1946    -5.4814 O.2     
  58 N58          -31.6566    -1.5865    -4.6210 N.am    
  59 C59          -32.6988    -2.4485    -4.0580 C.3     
  60 C60          -32.7564    -2.2551    -2.5414 C.3     
  61 O61          -33.1705    -0.9195    -2.2469 O.3     
  62 C62          -36.9607    -1.1771    -3.9631 C.2     
  63 O63          -36.2950    -0.7527    -3.0425 O.2     
  64 N64          -35.1428    -2.7510    -4.2905 N.am    
  65 C65          -36.4521    -2.3276    -4.7931 C.3     
  66 C66          -37.4356    -3.4961    -4.7020 C.3     
  67 C67          -36.9787    -4.6091    -5.6095 C.2     
  68 O68          -36.0277    -4.4441    -6.3363 O.2     
  69 O69          -37.6282    -5.7838    -5.6103 O.3     
  70 C70          -40.1544     0.5420    -3.5073 C.2     
  71 O71          -40.7547    -0.2803    -4.1664 O.2     
  72 N72          -38.1553    -0.6199    -4.2440 N.am    
  73 C73          -38.6497     0.4985    -3.4371 C.3     
  74 C74          -38.0758     1.8099    -3.9773 C.3     
  75 C75          -36.5492     1.7183    -4.0225 C.3     
  76 O76          -38.5783     2.0429    -5.2946 O.3     
  77 C77          -42.7710     2.9412    -2.6352 C.2     
  78 O78          -41.9669     3.8202    -2.4077 O.2     
  79 N79          -40.8330     1.4946    -2.8377 N.am    
  80 C80          -42.2958     1.5369    -2.9059 C.3     
  81 C81          -42.8829     0.5890    -1.8582 C.3     
  82 C82          -42.5030    -0.8521    -2.2044 C.3     
  83 C83          -43.0900    -1.8000    -1.1567 C.3     
  84 N84          -42.7263    -3.1799    -1.4882 N.pl3   
  85 C85          -43.1447    -4.2133    -0.6837 C.2     
  86 N86          -42.8210    -5.4410    -0.9787 N.2     
  87 N87          -43.9044    -3.9517     0.4319 N.pl3   
  88 C88          -45.9609     4.5451    -1.8512 C.2     
  89 O89          -46.5242     3.4809    -1.7064 O.2     
  90 N90          -44.0895     3.2203    -2.6460 N.am    
  91 C91          -44.5514     4.5855    -2.3828 C.3     
  92 C92          -44.5189     5.3941    -3.6812 C.3     
  93 C93          -43.0715     5.5407    -4.1547 C.3     
  94 C94          -43.0396     6.3372    -5.4337 C.2     
  95 O95          -44.0728     6.7471    -5.9187 O.2     
  96 N96          -41.8628     6.5939    -6.0385 N.am    
  97 C97          -48.6529     6.9602    -1.3183 C.2     
  98 O98          -48.0566     7.8384    -1.9050 O.2     
  99 N99          -46.5955     5.6918    -1.5366 N.am    
 100 C100         -47.9658     5.6525    -1.0198 C.3     
 101 C101         -47.9340     5.4269     0.4931 C.3     
 102 C102         -47.3496     4.0445     0.7904 C.3     
 103 C103         -47.3183     3.8222     2.2806 C.2     
 104 O104         -47.7235     4.6845     3.0310 O.2     
 105 N105         -46.8399     2.6651     2.7794 N.am    
 106 C106         -51.7052     8.6496    -0.2264 C.2     
 107 O107         -51.9157     7.8287     0.6413 O.2     
 108 N108         -49.9299     7.1537    -0.9333 N.am    
 109 C109         -50.5978     8.4249    -1.2235 C.3     
 110 C110         -51.1843     8.3820    -2.6360 C.3     
 111 C111         -50.0663     8.2805    -3.6413 C.ar    
 112 C112         -49.6095     7.0387    -4.0425 C.ar    
 113 C113         -48.5844     6.9430    -4.9636 C.ar    
 114 C114         -48.0135     8.0942    -5.4864 C.ar    
 115 O115         -47.0052     8.0027    -6.3930 O.3     
 116 C116         -48.4739     9.3391    -5.0826 C.ar    
 117 C117         -49.5028     9.4294    -4.1651 C.ar    
 118 C118         -54.5798    10.8885     0.0684 C.2     
 119 O119         -54.4371    11.3111    -1.0594 O.2     
 120 N120         -52.4615     9.7628    -0.2987 N.am    
 121 C121         -53.5380     9.9812     0.6706 C.3     
 122 C122         -52.9646    10.6298     1.9321 C.3     
 123 C123         -51.9990     9.6570     2.6119 C.3     
 124 C124         -51.4255    10.3056     3.8734 C.3     
 125 N125         -50.5010     9.3740     4.5243 N.pl3   
 126 C126         -49.8595     9.7400     5.6839 C.2     
 127 N127         -50.0738    10.9157     6.2042 N.2     
 128 N128         -48.9918     8.8658     6.2948 N.pl3   
 129 C129         -57.4272    12.8227     1.2989 C.2     
 130 O130         -57.1402    12.6128     2.4584 O.2     
 131 N131         -55.6701    11.2304     0.7832 N.am    
 132 C132         -56.6828    12.1124     0.1978 C.3     
 133 C133         -57.6661    11.2816    -0.6291 C.3     
 134 C134         -56.9333    10.6604    -1.8199 C.3     
 135 C135         -57.9165     9.8297    -2.6469 C.3     
 136 C136         -57.1837     9.2084    -3.8377 C.3     
 137 N137         -58.1278     8.4108    -4.6317 N.3     
 138 C138         -60.4768    14.7843     1.6517 C.2     
 139 O139         -60.8178    14.6645     0.4940 O.2     
 140 N140         -58.4121    13.6912     0.9950 N.am    
 141 C141         -59.0614    14.4633     2.0573 C.3     
 142 C142         -58.2893    15.7641     2.2871 C.3     
 143 C143         -58.8605    16.4872     3.5084 C.3     
 144 C144         -58.5613    15.6735     4.7691 C.3     
 145 C145         -58.2170    17.8701     3.6294 C.3     
 146 C146         -62.9392    16.7852     1.6224 C.2     
 147 O147         -61.9878    17.5237     1.5260 O.2     
 148 N148         -61.3637    15.2045     2.5754 N.am    
 149 C149         -62.7668    15.4062     2.2052 C.3     
 150 C150         -63.6476    15.2641     3.4481 C.3     
 151 C151         -63.5357    13.8384     3.9922 C.3     
 152 C152         -64.3021    13.7348     5.3123 C.3     
 153 C153         -64.1299    12.8579     2.9792 C.3     
 154 O154         -64.1498    17.1930     1.2102 O.3     
 155 C155          -4.4182     7.6195    -0.7660 C.2     
 156 O156          -4.6121     7.1142    -1.8510 O.2     
 157 C157          13.6608     3.1575    -2.8701 C.3     
 158 C158          12.2493     3.1294    -3.4596 C.3     
 159 C159          11.2768     3.7989    -2.4865 C.3     
 160 C160           9.8652     3.7708    -3.0761 C.3     
 161 C161           8.8927     4.4403    -2.1030 C.3     
 162 C162           7.4811     4.4122    -2.6925 C.3     
 163 C163           6.5086     5.0817    -1.7194 C.3     
 164 C164           5.0970     5.0536    -2.3090 C.3     
 165 C165           4.1245     5.7231    -1.3359 C.3     
 166 C166           2.7129     5.6950    -1.9254 C.3     
 167 C167           1.7404     6.3645    -0.9524 C.3     
 168 C168           0.3288     6.3364    -1.5419 C.3     
 169 C169          -0.6437     7.0058    -0.5688 C.3     
 170 C170          -2.0553     6.9777    -1.1584 C.3     
 171 C171          -3.0278     7.6472    -0.1853 C.3     
 172 H172          -9.0454     6.0753    -7.3381 H       
 173 H173          -9.6779     7.3670    -6.5031 H       
 174 H174          -9.1072     4.6937    -5.3984 H       
 175 H175         -10.2710     7.2222    -4.1489 H       
 176 H176         -10.2499     5.6248    -3.3639 H       
 177 H177          -7.7765     5.5750    -3.5317 H       
 178 H178          -7.7975     7.1723    -4.3167 H       
 179 H179          -8.8652     8.1481    -2.3026 H       
 180 H180          -8.8441     6.5507    -1.5175 H       
 181 H181          -6.2139     7.1753    -2.3352 H       
 182 H182          -7.5836     8.8562     1.0231 H       
 183 H183          -5.2808     8.6248     0.7540 H       
 184 H184         -11.2216     3.5673    -4.7402 H       
 185 H185         -13.6521     4.7013    -5.8954 H       
 186 H186         -12.3887     2.1346    -6.9560 H       
 187 H187         -14.0483     2.6676    -7.3163 H       
 188 H188         -13.1614     4.7634    -8.3011 H       
 189 H189         -11.5018     4.2304    -7.9408 H       
 190 H190         -12.0431     3.1715   -11.4100 H       
 191 H191         -15.4766     2.7361    -5.6273 H       
 192 H192         -14.8402     1.0455    -3.3329 H       
 193 H193         -16.5716     1.9967    -1.8869 H       
 194 H194         -14.7257     4.1558    -3.0039 H       
 195 H195         -15.5319     4.1983    -1.4176 H       
 196 H196         -14.2929     2.9653    -1.7534 H       
 197 H197         -16.9901     3.9339    -4.0086 H       
 198 H198         -17.2582     0.0027    -2.6464 H       
 199 H199         -18.0541    -1.1748    -5.2086 H       
 200 H200         -18.7691    -1.8590    -2.3224 H       
 201 H201         -19.3154    -2.7786    -3.7451 H       
 202 H202         -17.9111    -4.4694    -2.2770 H       
 203 H203         -16.2990    -4.5915    -2.7339 H       
 204 H204         -20.6872    -1.7448    -5.1420 H       
 205 H205         -22.1997     0.4991    -4.0443 H       
 206 H206         -23.0922     1.1844    -6.2540 H       
 207 H207         -21.3296     1.4199    -6.1759 H       
 208 H208         -22.0031     0.0253    -7.0533 H       
 209 H209         -24.6790     0.1628    -5.0455 H       
 210 H210         -25.4999    -2.3720    -4.1084 H       
 211 H211         -25.4132    -2.4319    -5.8853 H       
 212 H212         -27.9713    -2.7687    -5.1072 H       
 213 H213         -29.2627    -0.1868    -4.6668 H       
 214 H214         -29.5809    -1.7439    -7.2712 H       
 215 H215         -30.6279    -0.3962    -6.7654 H       
 216 H216         -28.6536     1.1008    -6.6676 H       
 217 H217         -27.6066    -0.2469    -7.1734 H       
 218 H218         -28.8845    -0.4456    -9.2891 H       
 219 H219         -29.9314     0.9021    -8.7833 H       
 220 H220         -27.2462     1.7698    -8.6691 H       
 221 H221         -29.0578     1.7004   -12.2342 H       
 222 H222         -26.4193     3.0885   -10.4712 H       
 223 H223         -27.1903     3.0495   -11.9635 H       
 224 H224         -31.8878    -0.7131    -4.9739 H       
 225 H225         -32.4696    -3.4901    -4.2830 H       
 226 H226         -33.4689    -2.9594    -2.1121 H       
 227 H227         -31.7690    -2.4317    -2.1149 H       
 228 H228         -33.2292    -0.7254    -1.3014 H       
 229 H229         -35.0760    -3.5104    -3.6906 H       
 230 H230         -36.3578    -2.0122    -5.8322 H       
 231 H231         -37.4756    -3.8581    -3.6747 H       
 232 H232         -38.4268    -3.1615    -5.0081 H       
 233 H233         -37.2983    -6.4675    -6.2093 H       
 234 H234         -38.6877    -0.9593    -4.9803 H       
 235 H235         -38.3380     0.3649    -2.4012 H       
 236 H236         -38.3713     2.6318    -3.3251 H       
 237 H237         -36.2538     0.8964    -4.6748 H       
 238 H238         -36.1404     2.6525    -4.4074 H       
 239 H239         -36.1660     1.5405    -3.0177 H       
 240 H240         -38.3527     1.3497    -5.9299 H       
 241 H241         -40.3529     2.1523    -2.3106 H       
 242 H242         -42.6223     1.2280    -3.8990 H       
 243 H243         -42.4861     0.8432    -0.8753 H       
 244 H244         -43.9685     0.6861    -1.8480 H       
 245 H245         -42.8997    -1.1063    -3.1873 H       
 246 H246         -41.4174    -0.9492    -2.2146 H       
 247 H247         -42.6933    -1.5458    -0.1738 H       
 248 H248         -44.1756    -1.7029    -1.1465 H       
 249 H249         -42.1903    -3.3644    -2.2753 H       
 250 H250         -43.1162    -6.1701    -0.4111 H       
 251 H251         -44.1452    -3.0381     0.6514 H       
 252 H252         -44.1996    -4.6808     0.9995 H       
 253 H253         -44.7326     2.5173    -2.8279 H       
 254 H254         -43.8986     5.0543    -1.6464 H       
 255 H255         -45.1006     4.8781    -4.4452 H       
 256 H256         -44.9454     6.3816    -3.5050 H       
 257 H257         -42.4898     6.0567    -3.3908 H       
 258 H258         -42.6450     4.5532    -4.3309 H       
 259 H259         -41.0364     6.2660    -5.6505 H       
 260 H260         -41.8422     7.1066    -6.8617 H       
 261 H261         -46.1450     6.5430    -1.6524 H       
 262 H262         -48.5110     4.8384    -1.4972 H       
 263 H263         -47.3145     6.1916     0.9616 H       
 264 H264         -48.9472     5.4862     0.8907 H       
 265 H265         -47.9691     3.2797     0.3219 H       
 266 H266         -46.3364     3.9852     0.3928 H       
 267 H267         -46.5159     1.9754     2.1792 H       
 268 H268         -46.8198     2.5220     3.7386 H       
 269 H269         -50.4067     6.4513    -0.4641 H       
 270 H270         -49.8760     9.2387    -1.1544 H       
 271 H271         -51.8386     7.5155    -2.7315 H       
 272 H272         -51.7565     9.2914    -2.8195 H       
 273 H273         -50.0542     6.1428    -3.6352 H       
 274 H274         -48.2275     5.9728    -5.2761 H       
 275 H275         -47.3043     7.9710    -7.3121 H       
 276 H276         -48.0309    10.2368    -5.4879 H       
 277 H277         -49.8645    10.3982    -3.8538 H       
 278 H278         -52.2931    10.4193    -0.9927 H       
 279 H279         -53.9941     9.0254     0.9287 H       
 280 H280         -52.4315    11.5414     1.6618 H       
 281 H281         -53.7769    10.8734     2.6168 H       
 282 H282         -52.5320     8.7454     2.8822 H       
 283 H283         -51.1866     9.4133     1.9272 H       
 284 H284         -50.8925    11.2171     3.6031 H       
 285 H285         -52.2379    10.5492     4.5581 H       
 286 H286         -50.3414     8.4991     4.1371 H       
 287 H287         -49.6212    11.1738     7.0223 H       
 288 H288         -48.8323     7.9908     5.9076 H       
 289 H289         -48.5392     9.1239     7.1129 H       
 290 H290         -55.7842    10.8924     1.6853 H       
 291 H291         -56.1973    12.8467    -0.4449 H       
 292 H292         -58.0856    10.4905    -0.0077 H       
 293 H293         -58.4691    11.9235    -0.9914 H       
 294 H294         -56.5137    11.4516    -2.4413 H       
 295 H295         -56.1302    10.0185    -1.4577 H       
 296 H296         -58.3361     9.0385    -2.0255 H       
 297 H297         -58.7196    10.4716    -3.0091 H       
 298 H298         -56.7642     9.9996    -4.4591 H       
 299 H299         -56.3807     8.5665    -3.4755 H       
 300 H300         -57.6676     7.9896    -5.4248 H       
 301 H301         -58.5787     7.7110    -4.0616 H       
 302 H302         -58.6910    13.8050     0.0730 H       
 303 H303         -59.0707    13.8790     2.9774 H       
 304 H304         -57.2372    15.5366     2.4587 H       
 305 H305         -58.3844    16.4030     1.4091 H       
 306 H306         -59.9389    16.5970     3.3942 H       
 307 H307         -57.4833    15.6235     4.9219 H       
 308 H308         -59.0285    16.1520     5.6298 H       
 309 H309         -58.9591    14.6652     4.6536 H       
 310 H310         -58.4301    18.4498     2.7313 H       
 311 H311         -58.6240    18.3853     4.4995 H       
 312 H312         -57.1386    17.7603     3.7436 H       
 313 H313         -61.0731    15.3733     3.4853 H       
 314 H314         -63.0584    14.6602     1.4660 H       
 315 H315         -63.3179    15.9706     4.2099 H       
 316 H316         -64.6846    15.4719     3.1843 H       
 317 H317         -62.4867    13.5953     4.1610 H       
 318 H318         -64.1506    12.7453     5.7437 H       
 319 H319         -63.9368    14.4929     6.0051 H       
 320 H320         -65.3650    13.8922     5.1288 H       
 321 H321         -63.5839    12.9317     2.0387 H       
 322 H322         -64.0502    11.8422     3.3668 H       
 323 H323         -65.1789    13.1010     2.8103 H       
 324 H324         -64.2110    18.0856     0.8434 H       
 325 H325          14.3537     2.6806    -3.5633 H       
 326 H326          13.9654     4.1911    -2.7055 H       
 327 H327          13.6691     2.6209    -1.9213 H       
 328 H328          12.2410     3.6661    -4.4083 H       
 329 H329          11.9447     2.0959    -3.6241 H       
 330 H330          11.2850     3.2623    -1.5378 H       
 331 H331          11.5813     4.8325    -2.3220 H       
 332 H332           9.8569     4.3074    -4.0248 H       
 333 H333           9.5606     2.7372    -3.2406 H       
 334 H334           8.9009     3.9037    -1.1543 H       
 335 H335           9.1972     5.4739    -1.9385 H       
 336 H336           7.4728     4.9488    -3.6412 H       
 337 H337           7.1765     3.3786    -2.8571 H       
 338 H338           6.5168     4.5451    -0.7707 H       
 339 H339           6.8131     6.1153    -1.5549 H       
 340 H340           5.0887     5.5902    -3.2577 H       
 341 H341           4.7925     4.0200    -2.4735 H       
 342 H342           4.1327     5.1865    -0.3872 H       
 343 H343           4.4290     6.7567    -1.1714 H       
 344 H344           2.7046     6.2316    -2.8742 H       
 345 H345           2.4084     4.6614    -2.0900 H       
 346 H346           1.7486     5.8278    -0.0036 H       
 347 H347           2.0449     7.3980    -0.7878 H       
 348 H348           0.3205     6.8730    -2.4906 H       
 349 H349           0.0243     5.3028    -1.7064 H       
 350 H350          -0.6355     6.4692     0.3799 H       
 351 H351          -0.3392     8.0394    -0.4043 H       
 352 H352          -2.0636     7.5144    -2.1071 H       
 353 H353          -2.3598     5.9442    -1.3229 H       
 354 H354          -2.7233     8.6808    -0.0207 H       
 355 H355          -3.0196     7.1106     0.7635 H       
@<TRIPOS>BOND
   1    1    2 2
   2    1    4 1
   3    1   14 am
   4    3    4 1
   5    3  172 1
   6    3  173 1
   7    4    5 1
   8    4  174 1
   9    5    6 1
  10    5  175 1
  11    5  176 1
  12    6    7 1
  13    6  177 1
  14    6  178 1
  15    7    8 1
  16    7  179 1
  17    7  180 1
  18    8    9 1
  19    8  181 1
  20    9   10 2
  21    9   11 1
  22   10  182 1
  23   11  155 am
  24   11  183 1
  25   12   13 2
  26   12   15 1
  27   12   23 am
  28   14   15 1
  29   14  184 1
  30   15   16 1
  31   15  185 1
  32   16   17 1
  33   16  186 1
  34   16  187 1
  35   17   18 1
  36   17  188 1
  37   17  189 1
  38   18   19 2
  39   18   20 1
  40   20  190 1
  41   21   22 2
  42   21   24 1
  43   21   30 am
  44   23   24 1
  45   23  191 1
  46   24   25 1
  47   24  192 1
  48   25   26 1
  49   25   27 1
  50   25  193 1
  51   26  194 1
  52   26  195 1
  53   26  196 1
  54   27  197 1
  55   28   29 2
  56   28   31 1
  57   28   38 am
  58   30   31 1
  59   30  198 1
  60   31   32 1
  61   31  199 1
  62   32   33 1
  63   32  200 1
  64   32  201 1
  65   33   34 2
  66   33   35 am
  67   35  202 1
  68   35  203 1
  69   36   37 2
  70   36   39 1
  71   36   43 am
  72   38   39 1
  73   38  204 1
  74   39   40 1
  75   39  205 1
  76   40  206 1
  77   40  207 1
  78   40  208 1
  79   41   42 2
  80   41   44 1
  81   41   47 am
  82   43   44 1
  83   43  209 1
  84   44  210 1
  85   44  211 1
  86   45   46 2
  87   45   48 1
  88   45   58 am
  89   47   48 1
  90   47  212 1
  91   48   49 1
  92   48  213 1
  93   49   50 1
  94   49  214 1
  95   49  215 1
  96   50   51 1
  97   50  216 1
  98   50  217 1
  99   51   52 1
 100   51  218 1
 101   51  219 1
 102   52   53 1
 103   52  220 1
 104   53   54 2
 105   53   55 1
 106   54  221 1
 107   55  222 1
 108   55  223 1
 109   56   57 2
 110   56   59 1
 111   56   64 am
 112   58   59 1
 113   58  224 1
 114   59   60 1
 115   59  225 1
 116   60   61 1
 117   60  226 1
 118   60  227 1
 119   61  228 1
 120   62   63 2
 121   62   65 1
 122   62   72 am
 123   64   65 1
 124   64  229 1
 125   65   66 1
 126   65  230 1
 127   66   67 1
 128   66  231 1
 129   66  232 1
 130   67   68 2
 131   67   69 1
 132   69  233 1
 133   70   71 2
 134   70   73 1
 135   70   79 am
 136   72   73 1
 137   72  234 1
 138   73   74 1
 139   73  235 1
 140   74   75 1
 141   74   76 1
 142   74  236 1
 143   75  237 1
 144   75  238 1
 145   75  239 1
 146   76  240 1
 147   77   78 2
 148   77   80 1
 149   77   90 am
 150   79   80 1
 151   79  241 1
 152   80   81 1
 153   80  242 1
 154   81   82 1
 155   81  243 1
 156   81  244 1
 157   82   83 1
 158   82  245 1
 159   82  246 1
 160   83   84 1
 161   83  247 1
 162   83  248 1
 163   84   85 1
 164   84  249 1
 165   85   86 2
 166   85   87 1
 167   86  250 1
 168   87  251 1
 169   87  252 1
 170   88   89 2
 171   88   91 1
 172   88   99 am
 173   90   91 1
 174   90  253 1
 175   91   92 1
 176   91  254 1
 177   92   93 1
 178   92  255 1
 179   92  256 1
 180   93   94 1
 181   93  257 1
 182   93  258 1
 183   94   95 2
 184   94   96 am
 185   96  259 1
 186   96  260 1
 187   97   98 2
 188   97  100 1
 189   97  108 am
 190   99  100 1
 191   99  261 1
 192  100  101 1
 193  100  262 1
 194  101  102 1
 195  101  263 1
 196  101  264 1
 197  102  103 1
 198  102  265 1
 199  102  266 1
 200  103  104 2
 201  103  105 am
 202  105  267 1
 203  105  268 1
 204  106  107 2
 205  106  109 1
 206  106  120 am
 207  108  109 1
 208  108  269 1
 209  109  110 1
 210  109  270 1
 211  110  111 1
 212  110  271 1
 213  110  272 1
 214  111  112 ar
 215  111  117 ar
 216  112  113 ar
 217  112  273 1
 218  113  114 ar
 219  113  274 1
 220  114  115 1
 221  114  116 ar
 222  115  275 1
 223  116  117 ar
 224  116  276 1
 225  117  277 1
 226  118  119 2
 227  118  121 1
 228  118  131 am
 229  120  121 1
 230  120  278 1
 231  121  122 1
 232  121  279 1
 233  122  123 1
 234  122  280 1
 235  122  281 1
 236  123  124 1
 237  123  282 1
 238  123  283 1
 239  124  125 1
 240  124  284 1
 241  124  285 1
 242  125  126 1
 243  125  286 1
 244  126  127 2
 245  126  128 1
 246  127  287 1
 247  128  288 1
 248  128  289 1
 249  129  130 2
 250  129  132 1
 251  129  140 am
 252  131  132 1
 253  131  290 1
 254  132  133 1
 255  132  291 1
 256  133  134 1
 257  133  292 1
 258  133  293 1
 259  134  135 1
 260  134  294 1
 261  134  295 1
 262  135  136 1
 263  135  296 1
 264  135  297 1
 265  136  137 1
 266  136  298 1
 267  136  299 1
 268  137  300 1
 269  137  301 1
 270  138  139 2
 271  138  141 1
 272  138  148 am
 273  140  141 1
 274  140  302 1
 275  141  142 1
 276  141  303 1
 277  142  143 1
 278  142  304 1
 279  142  305 1
 280  143  144 1
 281  143  145 1
 282  143  306 1
 283  144  307 1
 284  144  308 1
 285  144  309 1
 286  145  310 1
 287  145  311 1
 288  145  312 1
 289  146  147 2
 290  146  149 1
 291  146  154 1
 292  148  149 1
 293  148  313 1
 294  149  150 1
 295  149  314 1
 296  150  151 1
 297  150  315 1
 298  150  316 1
 299  151  152 1
 300  151  153 1
 301  151  317 1
 302  152  318 1
 303  152  319 1
 304  152  320 1
 305  153  321 1
 306  153  322 1
 307  153  323 1
 308  154  324 1
 309  155  156 2
 310  155  171 1
 311  157  158 1
 312  157  325 1
 313  157  326 1
 314  157  327 1
 315  158  159 1
 316  158  328 1
 317  158  329 1
 318  159  160 1
 319  159  330 1
 320  159  331 1
 321  160  161 1
 322  160  332 1
 323  160  333 1
 324  161  162 1
 325  161  334 1
 326  161  335 1
 327  162  163 1
 328  162  336 1
 329  162  337 1
 330  163  164 1
 331  163  338 1
 332  163  339 1
 333  164  165 1
 334  164  340 1
 335  164  341 1
 336  165  166 1
 337  165  342 1
 338  165  343 1
 339  166  167 1
 340  166  344 1
 341  166  345 1
 342  167  168 1
 343  167  346 1
 344  167  347 1
 345  168  169 1
 346  168  348 1
 347  168  349 1
 348  169  170 1
 349  169  350 1
 350  169  351 1
 351  170  171 1
 352  170  352 1
 353  170  353 1
 354  171  354 1
 355  171  355 1

#	End of record

