#	Name: ASD01880655
#	Creating user name:	WinNT
#	Creation time:	15. 06. 2019 19:41

#	Modifying user name:	WinNT
#	Modification time:	15. 06. 2019 19:41

#	Program:	/corina/corina34_cracker 3.40 0067  02.08.2006

@<TRIPOS>MOLECULE
ASD01880655
  51   53    0    0    0
SMALL
NO_CHARGES


@<TRIPOS>ATOM
   1 C1            -0.0162     1.3398     0.0094 C.2     
   2 N2             0.0021    -0.0041     0.0020 N.am    
   3 C3             1.3976    -0.4572    -0.0137 C.3     
   4 C4             2.2455     0.7903    -0.0151 C.ar    
   5 C5             3.6017     1.0053    -0.0273 C.ar    
   6 C6             4.0981     2.3048    -0.0255 C.ar    
   7 C7             3.2227     3.3847    -0.0109 C.ar    
   8 C8             1.8621     3.1749     0.0014 C.ar    
   9 C9             1.3579     1.8709    -0.0009 C.ar    
  10 O10           -1.0236     2.0205     0.0181 O.2     
  11 C11           -1.1772    -0.8733     0.0093 C.3     
  12 C12           -1.6020    -1.1687    -1.4305 C.3     
  13 C13           -2.8335    -2.0765    -1.4229 C.3     
  14 O14            5.4382     2.5186    -0.0375 O.3     
  15 C15            5.8783     3.8781    -0.0348 C.3     
  16 C16           10.0615     3.9905    -0.0744 C.ar    
  17 N17            9.3946     5.1272    -0.0624 N.ar    
  18 C18            8.0668     5.1344    -0.0498 C.ar    
  19 C19            7.3847     3.9185    -0.0494 C.ar    
  20 C20            8.1242     2.7512    -0.0622 C.ar    
  21 N21            9.4473     2.8248    -0.0744 N.ar    
  22 O22            7.3852     6.3057    -0.0370 O.3     
  23 C23            8.1594     7.5068    -0.0379 C.3     
  24 C24            7.2233     8.7169    -0.0225 C.3     
  25 C25            8.0522    10.0030    -0.0233 C.3     
  26 C26           11.5680     4.0249    -0.0948 C.3     
  27 H27            1.6083    -1.0525     0.8747 H       
  28 H28            1.5913    -1.0429    -0.9124 H       
  29 H29            4.2820     0.1666    -0.0380 H       
  30 H30            3.6115     4.3922    -0.0088 H       
  31 H31            1.1852     4.0164     0.0131 H       
  32 H32           -0.9365    -1.8079     0.5161 H       
  33 H33           -1.9925    -0.3751     0.5338 H       
  34 H34           -1.8426    -0.2342    -1.9373 H       
  35 H35           -0.7866    -1.6669    -1.9550 H       
  36 H36           -3.1362    -2.2869    -2.4486 H       
  37 H37           -2.5929    -3.0110    -0.9161 H       
  38 H38           -3.6489    -1.5783    -0.8984 H       
  39 H39            5.4926     4.3866    -0.9185 H       
  40 H40            5.5101     4.3774     0.8614 H       
  41 H41            7.6301     1.7909    -0.0623 H       
  42 H42            8.7965     7.5290     0.8463 H       
  43 H43            8.7797     7.5387    -0.9336 H       
  44 H44            6.5862     8.6947    -0.9066 H       
  45 H45            6.6030     8.6851     0.8732 H       
  46 H46            8.6725    10.0348    -0.9191 H       
  47 H47            7.3853    10.8651    -0.0124 H       
  48 H48            8.6893    10.0252     0.8608 H       
  49 H49           11.9452     4.0306     0.9278 H       
  50 H50           11.9445     3.1448    -0.6161 H       
  51 H51           11.9039     4.9243    -0.6110 H       
@<TRIPOS>BOND
   1    1    2 am
   2    1    9 1
   3    1   10 2
   4    2    3 1
   5    2   11 1
   6    3    4 1
   7    3   27 1
   8    3   28 1
   9    4    5 ar
  10    4    9 ar
  11    5    6 ar
  12    5   29 1
  13    6    7 ar
  14    6   14 1
  15    7    8 ar
  16    7   30 1
  17    8    9 ar
  18    8   31 1
  19   11   12 1
  20   11   32 1
  21   11   33 1
  22   12   13 1
  23   12   34 1
  24   12   35 1
  25   13   36 1
  26   13   37 1
  27   13   38 1
  28   14   15 1
  29   15   19 1
  30   15   39 1
  31   15   40 1
  32   16   17 ar
  33   16   21 ar
  34   16   26 1
  35   17   18 ar
  36   18   19 ar
  37   18   22 1
  38   19   20 ar
  39   20   21 ar
  40   20   41 1
  41   22   23 1
  42   23   24 1
  43   23   42 1
  44   23   43 1
  45   24   25 1
  46   24   44 1
  47   24   45 1
  48   25   46 1
  49   25   47 1
  50   25   48 1
  51   26   49 1
  52   26   50 1
  53   26   51 1

#	End of record

