#	Name: ASD03730917
#	Creating user name:	WinNT
#	Creation time:	15. 06. 2019 20:44

#	Modifying user name:	WinNT
#	Modification time:	15. 06. 2019 20:44

#	Program:	/corina/corina34_cracker 3.40 0067  02.08.2006

@<TRIPOS>MOLECULE
ASD03730917
  58   64    0    0    0
SMALL
NO_CHARGES


@<TRIPOS>ATOM
   1 C1            -0.0183     1.4733     0.0179 C.2     
   2 C2             0.0010    -0.0047     0.0159 C.ar    
   3 C3             1.2173    -0.6900     0.0087 C.ar    
   4 C4             1.2282    -2.0693     0.0068 C.ar    
   5 C5             0.0372    -2.7737     0.0117 C.ar    
   6 C6            -1.1716    -2.1009     0.0189 C.ar    
   7 C7            -1.1966    -0.7214     0.0271 C.ar    
   8 O8             1.0264     2.0948     0.0132 O.2     
   9 N9            -1.1942     2.1319     0.0193 N.am    
  10 C10           -2.1791     4.2728    -0.5323 C.ar    
  11 C11           -1.2149     3.5259     0.1326 C.ar    
  12 C12           -0.2695     4.1854     0.9139 C.ar    
  13 C13           -0.3314     5.5671     0.9953 C.ar    
  14 C14           -1.3211     6.2405     0.3041 C.ar    
  15 N15           -2.2020     5.5863    -0.4276 N.ar    
  16 C16            2.5402    -2.8107    -0.0010 C.3     
  17 O17           -0.9260    -3.2990     6.2790 O.3     
  18 C18           -0.9732    -3.5482     7.6963 C.3     
  19 O19           -0.0694    -4.6538     7.8797 O.3     
  20 C20            0.8329    -4.5620     6.8588 C.ar    
  21 C21            0.3051    -3.7296     5.8744 C.ar    
  22 C22            2.0826    -5.1298     6.6875 C.ar    
  23 C23            2.8198    -4.8771     5.5345 C.ar    
  24 C24            2.2786    -4.0506     4.5545 C.ar    
  25 C25            1.0354    -3.4781     4.7250 C.ar    
  26 O26            4.0613    -5.3166     5.1797 O.3     
  27 C27            3.2850    -3.9950     3.4365 C.3     
  28 C28            4.2330    -5.1584     3.7581 C.3     
  29 N29            2.9726    -3.0528     1.3777 N.am    
  30 C30            2.6448    -4.1510     2.0873 C.2     
  31 C31            4.0083    -2.6820     3.3842 C.ar    
  32 C32            4.7766    -1.9824     4.2878 C.ar    
  33 C33            5.3244    -0.7624     3.9334 C.ar    
  34 C34            5.0980    -0.2472     2.6700 C.ar    
  35 C35            4.3283    -0.9437     1.7618 C.ar    
  36 C36            3.7732    -2.1727     2.1097 C.ar    
  37 O37            1.9661    -5.0827     1.7098 O.2     
  38 H38            2.1476    -0.1414     0.0042 H       
  39 H39            0.0513    -3.8537     0.0095 H       
  40 H40           -2.0976    -2.6566     0.0223 H       
  41 H41           -2.1409    -0.1972     0.0376 H       
  42 H42           -2.0261     1.6391    -0.0582 H       
  43 H43           -2.9146     3.7724    -1.1447 H       
  44 H44            0.4928     3.6335     1.4436 H       
  45 H45            0.3853     6.1117     1.5921 H       
  46 H46           -1.3740     7.3176     0.3644 H       
  47 H47            2.4160    -3.7637    -0.5154 H       
  48 H48            3.2917    -2.2140    -0.5180 H       
  49 H49           -0.6279    -2.6753     8.2503 H       
  50 H50           -1.9822    -3.8234     8.0033 H       
  51 H51            2.4890    -5.7735     7.4536 H       
  52 H52            0.6303    -2.8322     3.9601 H       
  53 H53            5.2635    -4.8954     3.5195 H       
  54 H54            3.9304    -6.0620     3.2288 H       
  55 H55            4.9519    -2.3865     5.2739 H       
  56 H56            5.9277    -0.2138     4.6415 H       
  57 H57            5.5255     0.7053     2.3934 H       
  58 H58            4.1556    -0.5346     0.7773 H       
@<TRIPOS>BOND
   1    1    2 1
   2    1    8 2
   3    1    9 am
   4    2    3 ar
   5    2    7 ar
   6    3    4 ar
   7    3   38 1
   8    4    5 ar
   9    4   16 1
  10    5    6 ar
  11    5   39 1
  12    6    7 ar
  13    6   40 1
  14    7   41 1
  15    9   11 1
  16    9   42 1
  17   10   11 ar
  18   10   15 ar
  19   10   43 1
  20   11   12 ar
  21   12   13 ar
  22   12   44 1
  23   13   14 ar
  24   13   45 1
  25   14   15 ar
  26   14   46 1
  27   16   29 1
  28   16   47 1
  29   16   48 1
  30   17   18 1
  31   17   21 1
  32   18   19 1
  33   18   49 1
  34   18   50 1
  35   19   20 1
  36   20   21 ar
  37   20   22 ar
  38   21   25 ar
  39   22   23 ar
  40   22   51 1
  41   23   24 ar
  42   23   26 1
  43   24   25 ar
  44   24   27 1
  45   25   52 1
  46   26   28 1
  47   27   28 1
  48   27   30 1
  49   27   31 1
  50   28   53 1
  51   28   54 1
  52   29   30 am
  53   29   36 1
  54   30   37 2
  55   31   32 ar
  56   31   36 ar
  57   32   33 ar
  58   32   55 1
  59   33   34 ar
  60   33   56 1
  61   34   35 ar
  62   34   57 1
  63   35   36 ar
  64   35   58 1

#	End of record

