#	Name: ASD04880023
#	Creating user name:	WinNT
#	Creation time:	15. 06. 2019 20:52

#	Modifying user name:	WinNT
#	Modification time:	15. 06. 2019 20:52

#	Program:	/corina/corina34_cracker 3.40 0067  02.08.2006

@<TRIPOS>MOLECULE
ASD04880023
  75   79    0    0    0
SMALL
NO_CHARGES


@<TRIPOS>ATOM
   1 C1             0.9124     1.2727    -0.7489 C.ar    
   2 C2             0.6310    -0.0464    -1.0843 C.ar    
   3 C3            -0.6736    -0.4523    -1.2604 C.ar    
   4 C4            -1.7185     0.4618    -1.1017 C.ar    
   5 C5            -1.4382     1.7892    -0.7638 C.ar    
   6 C6            -0.1286     2.1910    -0.5829 C.ar    
   7 C7            -3.1155     0.0270    -1.2908 C.2     
   8 O8            -4.0241     0.8231    -1.1525 O.2     
   9 N9            -3.3846    -1.2527    -1.6169 N.am    
  10 C10           -4.7719    -1.6845    -1.8047 C.3     
  11 C11           -4.7988    -3.1709    -2.1664 C.3     
  12 C12           -6.2476    -3.6219    -2.3625 C.3     
  13 N13           -6.2734    -5.0452    -2.7088 N.am    
  14 C14           -6.3585    -6.1344    -1.7289 C.3     
  15 C15           -5.9215    -7.4069    -2.4881 C.3     
  16 C16           -6.2595    -7.0335    -3.9500 C.3     
  17 C17           -6.2280    -5.5210    -3.9651 C.2     
  18 O18           -6.1635    -4.8376    -4.9649 O.2     
  19 N19            0.1565     3.5201    -0.2438 N.am    
  20 C20           -0.6320     4.5150    -0.6964 C.2     
  21 C21           -0.4029     5.8928    -0.2501 C.2     
  22 O22           -1.5343     4.2698    -1.4756 O.2     
  23 C23           -1.1237     6.9892    -0.6284 C.2     
  24 C24           -0.5623     8.0904     0.0368 C.2     
  25 C25            0.4635     7.6239     0.7825 C.2     
  26 O26            0.5532     6.2986     0.6109 O.3     
  27 N27            2.2326     1.6787    -0.5723 N.3     
  28 C28            2.6429     2.6099    -1.6310 C.3     
  29 C29            3.1344     0.5217    -0.5039 C.3     
  30 C30            4.5496     0.9956    -0.1653 C.3     
  31 C31            5.0260     1.9748    -1.2417 C.3     
  32 C32            4.0434     3.1461    -1.3260 C.3     
  33 C33            6.3954     2.4910    -0.8824 C.ar    
  34 C34            7.4404     2.3591    -1.7774 C.ar    
  35 C35            6.6052     3.1016     0.3401 C.ar    
  36 C36            7.8612     3.5751     0.6697 C.ar    
  37 C37            8.9079     3.4377    -0.2231 C.ar    
  38 C38            8.6969     2.8323    -1.4475 C.ar    
  39 C39            7.2103     1.6991    -3.1125 C.3     
  40 H40            1.4369    -0.7547    -1.2075 H       
  41 H41           -0.8890    -1.4778    -1.5217 H       
  42 H42           -2.2437     2.4980    -0.6409 H       
  43 H43           -2.6598    -1.8878    -1.7273 H       
  44 H44           -5.3302    -1.5249    -0.8823 H       
  45 H45           -5.2266    -1.1066    -2.6093 H       
  46 H46           -4.2405    -3.3306    -3.0888 H       
  47 H47           -4.3442    -3.7489    -1.3618 H       
  48 H48           -6.8059    -3.4622    -1.4401 H       
  49 H49           -6.7023    -3.0440    -3.1671 H       
  50 H50           -5.6850    -5.9436    -0.8934 H       
  51 H51           -7.3828    -6.2414    -1.3718 H       
  52 H52           -4.8529    -7.5850    -2.3681 H       
  53 H53           -6.4986    -8.2725    -2.1631 H       
  54 H54           -5.5114    -7.4403    -4.6304 H       
  55 H55           -7.2537    -7.3931    -4.2155 H       
  56 H56            0.9214     3.7243     0.3166 H       
  57 H57           -1.9627     7.0059    -1.3082 H       
  58 H58           -0.8886     9.1175    -0.0344 H       
  59 H59            1.1035     8.2209     1.4153 H       
  60 H60            2.6540     2.0891    -2.5885 H       
  61 H61            1.9383     3.4402    -1.6775 H       
  62 H62            2.7867    -0.1646     0.2682 H       
  63 H63            3.1431     0.0107    -1.4667 H       
  64 H64            4.5441     1.4946     0.8038 H       
  65 H65            5.2217     0.1383    -0.1300 H       
  66 H66            5.0687     1.4653    -2.2044 H       
  67 H67            4.3540     3.8252    -2.1200 H       
  68 H68            4.0300     3.6789    -0.3751 H       
  69 H69            5.7875     3.2090     1.0375 H       
  70 H70            8.0249     4.0527     1.6244 H       
  71 H71            9.8893     3.8080     0.0343 H       
  72 H72            9.5146     2.7249    -2.1449 H       
  73 H73            6.9611     2.4575    -3.8546 H       
  74 H74            8.1151     1.1742    -3.4190 H       
  75 H75            6.3883     0.9881    -3.0294 H       
@<TRIPOS>BOND
   1    1    2 ar
   2    1   27 1
   3    1    6 ar
   4    2    3 ar
   5    2   40 1
   6    3    4 ar
   7    3   41 1
   8    4    5 ar
   9    4    7 1
  10    5    6 ar
  11    5   42 1
  12    6   19 1
  13    7    8 2
  14    7    9 am
  15    9   10 1
  16    9   43 1
  17   10   11 1
  18   10   44 1
  19   10   45 1
  20   11   12 1
  21   11   46 1
  22   11   47 1
  23   12   13 1
  24   12   48 1
  25   12   49 1
  26   13   14 1
  27   13   17 am
  28   14   15 1
  29   14   50 1
  30   14   51 1
  31   15   16 1
  32   15   52 1
  33   15   53 1
  34   16   17 1
  35   16   54 1
  36   16   55 1
  37   17   18 2
  38   19   20 am
  39   19   56 1
  40   20   21 1
  41   20   22 2
  42   21   23 2
  43   21   26 1
  44   23   24 1
  45   23   57 1
  46   24   25 2
  47   24   58 1
  48   25   26 1
  49   25   59 1
  50   27   28 1
  51   27   29 1
  52   28   32 1
  53   28   60 1
  54   28   61 1
  55   29   30 1
  56   29   62 1
  57   29   63 1
  58   30   31 1
  59   30   64 1
  60   30   65 1
  61   31   32 1
  62   31   33 1
  63   31   66 1
  64   32   67 1
  65   32   68 1
  66   33   34 ar
  67   33   35 ar
  68   34   39 1
  69   34   38 ar
  70   35   36 ar
  71   35   69 1
  72   36   37 ar
  73   36   70 1
  74   37   38 ar
  75   37   71 1
  76   38   72 1
  77   39   73 1
  78   39   74 1
  79   39   75 1

#	End of record

