#	Name: ASD01001174
#	Creating user name:	WinNT
#	Creation time:	15. 06. 2019 18:55

#	Modifying user name:	WinNT
#	Modification time:	15. 06. 2019 18:55

#	Program:	/corina/corina34_cracker 3.40 0067  02.08.2006

@<TRIPOS>MOLECULE
ASD01001174
  52   55    0    0    0
SMALL
NO_CHARGES


@<TRIPOS>ATOM
   1 C1            -0.0167     1.3782     0.0096 C.ar    
   2 C2             1.2784     2.1488     0.0014 C.3     
   3 C3             1.8661     2.1917     1.4148 C.3     
   4 N4             2.2543     1.4743    -0.8670 N.pl3   
   5 C5             0.8464     2.7691     2.3928 C.3     
   6 C6             3.1375     3.0369     1.4042 C.3     
   7 C7             3.6091     1.8036    -0.7480 C.ar    
   8 C8             0.5868     4.2401     2.0543 C.3     
   9 C9             4.0724     2.5467     0.3266 C.ar    
  10 O10            2.8125     4.4039     1.1400 O.3     
  11 C11            4.4972     1.3732    -1.7281 C.ar    
  12 C12            1.9192     4.9953     2.0839 C.3     
  13 C13            5.4191     2.8515     0.4198 C.ar    
  14 C14            5.8390     1.6826    -1.6289 C.ar    
  15 C15            6.2995     2.4210    -0.5545 C.ar    
  16 C16            7.7646     2.7570    -0.4457 C.3     
  17 C17            8.3281     2.1683     0.8493 C.3     
  18 C18            8.5134     2.1670    -1.6423 C.3     
  19 C19            7.9396     4.2770    -0.4334 C.3     
  20 C20            0.0021    -0.0041     0.0020 C.ar    
  21 C21           -1.1846    -0.7140     0.0091 C.ar    
  22 C22           -2.3920    -0.0433     0.0237 C.ar    
  23 C23           -2.4135     1.3440     0.0319 C.ar    
  24 C24           -1.2217     2.0538     0.0305 C.ar    
  25 O25           -3.6001     2.0063     0.0459 O.3     
  26 H26            1.1025     3.1631    -0.3567 H       
  27 H27            2.1277     1.1801     1.7252 H       
  28 H28            1.9635     0.8111    -1.5123 H       
  29 H29           -0.0858     2.2093     2.3178 H       
  30 H30            1.2344     2.6933     3.4086 H       
  31 H31            3.6304     2.9631     2.3736 H       
  32 H32            0.1468     4.3141     1.0598 H       
  33 H33           -0.0932     4.6698     2.7899 H       
  34 H34            4.1369     0.7962    -2.5670 H       
  35 H35            1.7518     6.0400     1.8222 H       
  36 H36            2.3511     4.9333     3.0828 H       
  37 H37            5.7834     3.4283     1.2570 H       
  38 H38            6.5284     1.3478    -2.3898 H       
  39 H39            8.2033     1.0855     0.8405 H       
  40 H40            9.3877     2.4114     0.9279 H       
  41 H41            7.7946     2.5887     1.7018 H       
  42 H42            8.1119     2.5864    -2.5649 H       
  43 H43            9.5730     2.4101    -1.5637 H       
  44 H44            8.3887     1.0842    -1.6510 H       
  45 H45            7.4062     4.6973     0.4191 H       
  46 H46            8.9993     4.5200    -0.3548 H       
  47 H47            7.5382     4.6964    -1.3560 H       
  48 H48            0.9451    -0.5304    -0.0098 H       
  49 H49           -1.1673    -1.7939     0.0028 H       
  50 H50           -3.3185    -0.5982     0.0285 H       
  51 H51           -1.2358     3.1337     0.0368 H       
  52 H52           -3.9359     2.1929     0.9333 H       
@<TRIPOS>BOND
   1    1   20 ar
   2    1    2 1
   3    1   24 ar
   4    2    3 1
   5    2    4 1
   6    2   26 1
   7    3    5 1
   8    3    6 1
   9    3   27 1
  10    4    7 1
  11    4   28 1
  12    5    8 1
  13    5   29 1
  14    5   30 1
  15    6    9 1
  16    6   10 1
  17    6   31 1
  18    7    9 ar
  19    7   11 ar
  20    8   12 1
  21    8   32 1
  22    8   33 1
  23    9   13 ar
  24   10   12 1
  25   11   14 ar
  26   11   34 1
  27   12   35 1
  28   12   36 1
  29   13   15 ar
  30   13   37 1
  31   14   15 ar
  32   14   38 1
  33   15   16 1
  34   16   17 1
  35   16   18 1
  36   16   19 1
  37   17   39 1
  38   17   40 1
  39   17   41 1
  40   18   42 1
  41   18   43 1
  42   18   44 1
  43   19   45 1
  44   19   46 1
  45   19   47 1
  46   20   21 ar
  47   20   48 1
  48   21   22 ar
  49   21   49 1
  50   22   23 ar
  51   22   50 1
  52   23   24 ar
  53   23   25 1
  54   24   51 1
  55   25   52 1

#	End of record

