#	Name: ASD01884074
#	Creating user name:	WinNT
#	Creation time:	15. 06. 2019 19:47

#	Modifying user name:	WinNT
#	Modification time:	15. 06. 2019 19:47

#	Program:	/corina/corina34_cracker 3.40 0067  02.08.2006

@<TRIPOS>MOLECULE
ASD01884074
  53   57    0    0    0
SMALL
NO_CHARGES


@<TRIPOS>ATOM
   1 C1             2.7431    -4.1202    -3.1591 C.3     
   2 O2             1.6142    -3.7696    -2.3561 O.3     
   3 C3             0.8559    -2.7248    -2.7804 C.ar    
   4 C4             1.1880    -2.0545    -3.9485 C.ar    
   5 C5             0.4151    -0.9928    -4.3780 C.ar    
   6 C6            -0.6881    -0.5981    -3.6443 C.ar    
   7 C7            -1.0210    -1.2644    -2.4792 C.ar    
   8 C8            -0.2552    -2.3303    -2.0488 C.ar    
   9 C9            -0.6224    -3.0602    -0.7826 C.3     
  10 C10           -2.1237    -3.0063    -0.4538 C.3     
  11 C11           -2.0014    -4.4768    -0.0207 C.3     
  12 H12           -2.8490    -5.0926    -0.3215 H       
  13 C13           -0.7989    -4.5757    -0.9742 C.3     
  14 O14           -1.6571    -4.6412     1.3565 O.3     
  15 C15           -2.0808    -5.7776     1.9662 C.2     
  16 C16           -1.5762    -7.0305     1.5606 C.2     
  17 C17           -1.9951    -8.1602     2.1650 C.2     
  18 N18           -2.9109    -8.1087     3.1746 N.pl3   
  19 C19           -3.5070    -9.0565     3.9524 C.2     
  20 C20           -3.2756   -10.5438     3.8794 C.3     
  21 C21           -2.1298   -10.9283     4.8176 C.3     
  22 C22           -2.4583   -11.8517     5.9925 C.3     
  23 C23           -1.6610   -12.3847     4.8003 C.3     
  24 N24           -4.3156    -8.4394     4.7734 N.2     
  25 N25           -4.2743    -7.1693     4.5714 N.2     
  26 C26           -3.4220    -6.9045     3.5934 C.2     
  27 C27           -2.9942    -5.7137     2.9802 C.2     
  28 C28           -3.5406    -4.3839     3.4321 C.3     
  29 F29           -4.6735    -4.0640     2.6762 F       
  30 F30           -3.8885    -4.4582     4.7851 F       
  31 F31           -2.5670    -3.3951     3.2545 F       
  32 C32            0.2448    -2.7065     0.3531 C.1     
  33 N33            0.9140    -2.4335     1.2295 N.1     
  34 H34            2.4070    -4.3898    -4.1604 H       
  35 H35            3.4232    -3.2706    -3.2205 H       
  36 H36            3.2601    -4.9677    -2.7090 H       
  37 H37            2.0501    -2.3621    -4.5216 H       
  38 H38            0.6732    -0.4706    -5.2874 H       
  39 H39           -1.2908     0.2323    -3.9815 H       
  40 H40           -1.8832    -0.9539    -1.9076 H       
  41 H41           -2.3674    -2.3289     0.3646 H       
  42 H42           -2.7573    -2.8601    -1.3286 H       
  43 H43           -1.0703    -4.8585    -1.9913 H       
  44 H44            0.0268    -5.1653    -0.5759 H       
  45 H45           -0.8512    -7.0851     0.7620 H       
  46 H46           -1.6023    -9.1147     1.8468 H       
  47 H47           -4.1828   -11.0679     4.1801 H       
  48 H48           -3.0173   -10.8216     2.8576 H       
  49 H49           -1.3749   -10.1585     4.9778 H       
  50 H50           -1.9196   -11.6894     6.9261 H       
  51 H51           -3.4907   -12.1852     6.0971 H       
  52 H52           -2.1690   -13.0688     4.1206 H       
  53 H53           -0.5978   -12.5730     4.9496 H       
@<TRIPOS>BOND
   1    1    2 1
   2    1   34 1
   3    1   35 1
   4    1   36 1
   5    2    3 1
   6    3    8 ar
   7    3    4 ar
   8    4    5 ar
   9    4   37 1
  10    5    6 ar
  11    5   38 1
  12    6    7 ar
  13    6   39 1
  14    7    8 ar
  15    7   40 1
  16    8    9 1
  17    9   13 1
  18    9   10 1
  19    9   32 1
  20   10   11 1
  21   10   41 1
  22   10   42 1
  23   11   12 1
  24   11   13 1
  25   11   14 1
  26   13   43 1
  27   13   44 1
  28   14   15 1
  29   15   27 2
  30   15   16 1
  31   16   17 2
  32   16   45 1
  33   17   18 1
  34   17   46 1
  35   18   26 1
  36   18   19 1
  37   19   20 1
  38   19   24 2
  39   20   21 1
  40   20   47 1
  41   20   48 1
  42   21   23 1
  43   21   22 1
  44   21   49 1
  45   22   23 1
  46   22   50 1
  47   22   51 1
  48   23   52 1
  49   23   53 1
  50   24   25 1
  51   25   26 2
  52   26   27 1
  53   27   28 1
  54   28   29 1
  55   28   30 1
  56   28   31 1
  57   32   33 3

#	End of record

