#	Name: ASD00310086
#	Creating user name:	WinNT
#	Creation time:	15. 06. 2019 18:33

#	Modifying user name:	WinNT
#	Modification time:	15. 06. 2019 18:33

#	Program:	/corina/corina34_cracker 3.40 0067  02.08.2006

@<TRIPOS>MOLECULE
ASD00310086
  63   65    0    0    0
SMALL
NO_CHARGES


@<TRIPOS>ATOM
   1 N1            -0.0163     1.3500     0.0095 N.pl3   
   2 C2             0.0021    -0.0041     0.0020 C.2     
   3 C3             1.2921    -0.4483    -0.0127 C.2     
   4 C4             2.1475     0.7539    -0.0144 C.ar    
   5 C5             3.5230     0.9583    -0.0264 C.ar    
   6 C6             4.0239     2.2538    -0.0243 C.ar    
   7 C7             3.1465     3.3436    -0.0100 C.ar    
   8 C8             1.7850     3.1436     0.0019 C.ar    
   9 C9             1.2694     1.8502    -0.0001 C.ar    
  10 C10            1.7402    -1.8455    -0.0240 C.2     
  11 O11            2.9286    -2.1027    -0.0364 O.2     
  12 O12            0.8342    -2.8441    -0.0208 O.3     
  13 Cl13           3.7801     4.9599    -0.0068 Cl      
  14 C14            5.4899     2.4821    -0.0365 C.ar    
  15 C15            6.0532     3.3600    -0.9605 C.ar    
  16 C16            7.4175     3.5686    -0.9674 C.ar    
  17 C17            8.2253     2.9080    -0.0595 C.ar    
  18 C18            7.6715     2.0354     0.8599 C.ar    
  19 C19            6.3078     1.8237     0.8796 C.ar    
  20 C20           10.3710     2.2960     1.0223 C.3     
  21 C21            9.7144     3.1394    -0.0723 C.3     
  22 C22           10.2813     2.7370    -1.4353 C.3     
  23 C23           10.0025     4.6202     0.1829 C.3     
  24 O24           11.7830     2.5154     1.0102 O.3     
  25 Si25          12.5963     1.6652     2.1397 Si      
  26 C26           11.9813     2.1365     3.8339 C.3     
  27 C27           12.3207    -0.1565     1.8636 C.3     
  28 C28           14.4158     2.0444     2.0118 C.3     
  29 C29           14.6421     3.5405     2.2386 C.3     
  30 C30           15.1787     1.2469     3.0714 C.3     
  31 C31           14.9209     1.6574     0.6204 C.3     
  32 H32           -0.8206     1.8922     0.0163 H       
  33 H33           -0.8729    -0.6372     0.0073 H       
  34 H34            4.1975     0.1150    -0.0370 H       
  35 H35            1.1155     3.9910     0.0128 H       
  36 H36            1.1773    -3.7482    -0.0286 H       
  37 H37            5.4234     3.8761    -1.6701 H       
  38 H38            7.8552     4.2485    -1.6833 H       
  39 H39            8.3069     1.5222     1.5665 H       
  40 H40            5.8760     1.1456     1.6007 H       
  41 H41            9.9671     2.5826     1.9933 H       
  42 H42           10.1657     1.2410     0.8405 H       
  43 H43            9.8135     3.3379    -2.2151 H       
  44 H44           11.3583     2.9045    -1.4446 H       
  45 H45           10.0760     1.6821    -1.6171 H       
  46 H46            9.5986     4.9068     1.1539 H       
  47 H47           11.0796     4.7876     0.1736 H       
  48 H48            9.5347     5.2211    -0.5970 H       
  49 H49           10.9167     1.9146     3.9088 H       
  50 H50           12.5248     1.5683     4.5888 H       
  51 H51           12.1425     3.2024     3.9955 H       
  52 H52           12.6805    -0.4322     0.8723 H       
  53 H53           12.8642    -0.7247     2.6185 H       
  54 H54           11.2562    -0.3784     1.9384 H       
  55 H55           14.2823     3.8163     3.2299 H       
  56 H56           15.7067     3.7624     2.1638 H       
  57 H57           14.0986     4.1087     1.4837 H       
  58 H58           15.0175     0.1810     2.9099 H       
  59 H59           16.2432     1.4687     2.9966 H       
  60 H60           14.8189     1.5226     4.0627 H       
  61 H61           14.3774     2.2256    -0.1344 H       
  62 H62           15.9854     1.8793     0.5456 H       
  63 H63           14.7596     0.5915     0.4589 H       
@<TRIPOS>BOND
   1    1    2 1
   2    1    9 1
   3    1   32 1
   4    2    3 2
   5    2   33 1
   6    3    4 1
   7    3   10 1
   8    4    5 ar
   9    4    9 ar
  10    5    6 ar
  11    5   34 1
  12    6    7 ar
  13    6   14 1
  14    7    8 ar
  15    7   13 1
  16    8    9 ar
  17    8   35 1
  18   10   11 2
  19   10   12 1
  20   12   36 1
  21   14   15 ar
  22   14   19 ar
  23   15   16 ar
  24   15   37 1
  25   16   17 ar
  26   16   38 1
  27   17   18 ar
  28   17   21 1
  29   18   19 ar
  30   18   39 1
  31   19   40 1
  32   20   21 1
  33   20   24 1
  34   20   41 1
  35   20   42 1
  36   21   22 1
  37   21   23 1
  38   22   43 1
  39   22   44 1
  40   22   45 1
  41   23   46 1
  42   23   47 1
  43   23   48 1
  44   24   25 1
  45   25   26 1
  46   25   27 1
  47   25   28 1
  48   26   49 1
  49   26   50 1
  50   26   51 1
  51   27   52 1
  52   27   53 1
  53   27   54 1
  54   28   29 1
  55   28   31 1
  56   28   30 1
  57   29   55 1
  58   29   56 1
  59   29   57 1
  60   30   58 1
  61   30   59 1
  62   30   60 1
  63   31   61 1
  64   31   62 1
  65   31   63 1

#	End of record

