#	Name: ASD03091985
#	Creating user name:	WinNT
#	Creation time:	15. 06. 2019 20:31

#	Modifying user name:	WinNT
#	Modification time:	15. 06. 2019 20:31

#	Program:	/corina/corina34_cracker 3.40 0067  02.08.2006

@<TRIPOS>MOLECULE
ASD03091985
  56   60    0    0    0
SMALL
NO_CHARGES


@<TRIPOS>ATOM
   1 C1            -0.0015     1.4467     0.1449 C.ar    
   2 C2            -1.2655     2.0620     0.1898 C.ar    
   3 C3            -2.4302     1.2554     0.1364 C.ar    
   4 C4            -2.3095    -0.1448     0.0369 C.ar    
   5 C5            -1.0832    -0.7256    -0.0061 C.ar    
   6 C6             0.0803     0.0571     0.0479 C.ar    
   7 O7             1.1419     2.1675     0.1990 O.3     
   8 C8             2.2604     1.5723     0.8574 C.3     
   9 N9             2.4770     0.2065     0.3779 N.am    
  10 C10            1.4223    -0.5570     0.0095 C.2     
  11 C11           -3.5477    -1.0019    -0.0215 C.3     
  12 N12           -4.1623    -1.0659     1.3112 N.3     
  13 O13            1.5749    -1.7112    -0.3422 O.2     
  14 C14            3.8361    -0.3342     0.2968 C.3     
  15 C15            4.6714     0.4846    -0.7090 C.3     
  16 C16            4.5377    -0.2034     1.6600 C.3     
  17 C17            5.7748     0.6903     1.4351 C.3     
  18 C18            5.4239     1.5135     0.1709 C.3     
  19 O19            4.9428    -1.4916     2.1276 O.3     
  20 C20           -3.6922     1.8697     0.1835 C.ar    
  21 C21           -1.3962     3.4566     0.2857 C.ar    
  22 C22           -3.7814     3.2253     0.2777 C.ar    
  23 C23           -2.6367     4.0172     0.3279 C.ar    
  24 C24           -3.1900    -1.5254     2.3199 C.3     
  25 C25           -3.7893    -2.7765     2.9959 C.3     
  26 C26           -5.3101    -2.6225     2.7306 C.3     
  27 C27           -5.3185    -1.9873     1.3178 C.3     
  28 C28           -6.0059    -3.9851     2.7230 C.3     
  29 F29           -5.8558    -4.5923     3.9743 F       
  30 F30           -7.3668    -3.8122     2.4488 F       
  31 F31           -5.4313    -4.7966     1.7389 F       
  32 H32           -1.0024    -1.7999    -0.0822 H       
  33 H33            3.1518     2.1677     0.6599 H       
  34 H34            2.0748     1.5505     1.9313 H       
  35 H35           -4.2561    -0.5692    -0.7279 H       
  36 H36           -3.2788    -2.0070    -0.3462 H       
  37 H37            3.8040    -1.3803    -0.0078 H       
  38 H38            5.3784    -0.1597    -1.2316 H       
  39 H39            4.0207     0.9941    -1.4198 H       
  40 H40            3.8669     0.2623     2.3820 H       
  41 H41            5.9293     1.3498     2.2891 H       
  42 H42            6.6599     0.0791     1.2588 H       
  43 H43            6.3289     1.8599    -0.3281 H       
  44 H44            4.7757     2.3526     0.4239 H       
  45 H45            5.3917    -1.4758     2.9840 H       
  46 H46           -4.5890     1.2691     0.1448 H       
  47 H47           -0.5168     4.0821     0.3262 H       
  48 H48           -4.7541     3.6933     0.3131 H       
  49 H49           -2.7341     5.0902     0.4023 H       
  50 H50           -2.2470    -1.7808     1.8367 H       
  51 H51           -3.0289    -0.7440     3.0626 H       
  52 H52           -3.4073    -3.6857     2.5316 H       
  53 H53           -3.5825    -2.7728     4.0661 H       
  54 H54           -5.7683    -1.9559     3.4611 H       
  55 H55           -6.2444    -1.4355     1.1553 H       
  56 H56           -5.1952    -2.7563     0.5552 H       
@<TRIPOS>BOND
   1    1    6 ar
   2    1    7 1
   3    1    2 ar
   4    2    3 ar
   5    2   21 ar
   6    3    4 ar
   7    3   20 ar
   8    4    5 ar
   9    4   11 1
  10    5    6 ar
  11    5   32 1
  12    6   10 1
  13    7    8 1
  14    8    9 1
  15    8   33 1
  16    8   34 1
  17    9   10 am
  18    9   14 1
  19   10   13 2
  20   11   12 1
  21   11   35 1
  22   11   36 1
  23   12   27 1
  24   12   24 1
  25   14   16 1
  26   14   15 1
  27   14   37 1
  28   15   18 1
  29   15   38 1
  30   15   39 1
  31   16   17 1
  32   16   19 1
  33   16   40 1
  34   17   18 1
  35   17   41 1
  36   17   42 1
  37   18   43 1
  38   18   44 1
  39   19   45 1
  40   20   22 ar
  41   20   46 1
  42   21   23 ar
  43   21   47 1
  44   22   23 ar
  45   22   48 1
  46   23   49 1
  47   24   25 1
  48   24   50 1
  49   24   51 1
  50   25   26 1
  51   25   52 1
  52   25   53 1
  53   26   27 1
  54   26   28 1
  55   26   54 1
  56   27   55 1
  57   27   56 1
  58   28   29 1
  59   28   30 1
  60   28   31 1

#	End of record

