#	Name: ASD01200295
#	Creating user name:	WinNT
#	Creation time:	15. 06. 2019 19:08

#	Modifying user name:	WinNT
#	Modification time:	15. 06. 2019 19:08

#	Program:	/corina/corina34_cracker 3.40 0067  02.08.2006

@<TRIPOS>MOLECULE
ASD01200295
  48   52    0    0    0
SMALL
NO_CHARGES


@<TRIPOS>ATOM
   1 C1            -0.1676     1.3147    -0.6571 C.3     
   2 O2            -0.0638    -0.0794    -0.3607 O.3     
   3 C3             0.8275    -0.7937    -1.2195 C.3     
   4 C4             2.2397    -0.2197    -1.0780 C.3     
   5 C5             2.2109     1.2748    -1.4127 C.3     
   6 C6             1.2046     1.9734    -0.4930 C.3     
   7 O7             3.5103     1.8347    -1.2123 O.3     
   8 C8             3.8157     2.9537    -1.9204 C.ar    
   9 C9             2.8488     3.5667    -2.7035 C.ar    
  10 C10            5.0929     3.4889    -1.8574 C.ar    
  11 C11            5.4072     4.6285    -2.5767 C.ar    
  12 C12            4.4411     5.2359    -3.3611 C.ar    
  13 C13            3.1642     4.7036    -3.4201 C.ar    
  14 C14            6.6990     5.3999    -2.6837 C.3     
  15 C15            6.5574     6.2873    -3.9315 C.3     
  16 C16            5.0258     6.4570    -4.0399 C.3     
  17 C17            8.0369     4.7759    -2.3064 C.3     
  18 C18            7.4394     5.8928    -1.4460 C.3     
  19 C19            6.8781     5.5107    -0.1007 C.2     
  20 O20            5.8713     4.8380    -0.0325 O.2     
  21 N21            7.4950     5.9166     1.0268 N.am    
  22 C22            6.9773     5.5642     2.2677 C.2     
  23 N23            7.4907     5.9011     3.4093 N.2     
  24 S24            5.5664     4.6296     2.5106 S.3     
  25 C25            5.7731     4.7519     4.2559 C.2     
  26 C26            6.8669     5.4786     4.4930 C.2     
  27 H27           -0.5123     1.4435    -1.6831 H       
  28 H28           -0.8781     1.7797     0.0264 H       
  29 H29            0.8339    -1.8476    -0.9412 H       
  30 H30            0.4958    -0.6925    -2.2528 H       
  31 H31            2.5879    -0.3571    -0.0543 H       
  32 H32            2.9123    -0.7338    -1.7646 H       
  33 H33            1.9103     1.4101    -2.4516 H       
  34 H34            1.1369     3.0277    -0.7612 H       
  35 H35            1.5318     1.8803     0.5425 H       
  36 H36            1.8515     3.1552    -2.7528 H       
  37 H37            5.8453     3.0149    -1.2445 H       
  38 H38            2.4123     5.1778    -4.0334 H       
  39 H39            7.0447     7.2504    -3.7800 H       
  40 H40            6.9553     5.7841    -4.8127 H       
  41 H41            4.7222     6.4895    -5.0862 H       
  42 H42            4.7086     7.3638    -3.5250 H       
  43 H43            8.0239     3.7649    -1.8991 H       
  44 H44            8.9000     5.0233    -2.9243 H       
  45 H45            7.9095     6.8748    -1.4983 H       
  46 H46            8.3002     6.4547     0.9723 H       
  47 H47            5.1256     4.3178     5.0033 H       
  48 H48            7.2150     5.7010     5.4909 H       
@<TRIPOS>BOND
   1    1    2 1
   2    1    6 1
   3    1   27 1
   4    1   28 1
   5    2    3 1
   6    3    4 1
   7    3   29 1
   8    3   30 1
   9    4    5 1
  10    4   31 1
  11    4   32 1
  12    5    6 1
  13    5    7 1
  14    5   33 1
  15    6   34 1
  16    6   35 1
  17    7    8 1
  18    8    9 ar
  19    8   10 ar
  20    9   13 ar
  21    9   36 1
  22   10   11 ar
  23   10   37 1
  24   11   12 ar
  25   11   14 1
  26   12   13 ar
  27   12   16 1
  28   13   38 1
  29   14   15 1
  30   14   17 1
  31   14   18 1
  32   15   16 1
  33   15   39 1
  34   15   40 1
  35   16   41 1
  36   16   42 1
  37   17   18 1
  38   17   43 1
  39   17   44 1
  40   18   19 1
  41   18   45 1
  42   19   20 2
  43   19   21 am
  44   21   22 1
  45   21   46 1
  46   22   23 2
  47   22   24 1
  48   23   26 1
  49   24   25 1
  50   25   26 2
  51   25   47 1
  52   26   48 1

#	End of record

