#	Name: ASD01140739
#	Creating user name:	WinNT
#	Creation time:	15. 06. 2019 19:01

#	Modifying user name:	WinNT
#	Modification time:	15. 06. 2019 19:01

#	Program:	/corina/corina34_cracker 3.40 0067  02.08.2006

@<TRIPOS>MOLECULE
ASD01140739
  56   59    0    0    0
SMALL
NO_CHARGES


@<TRIPOS>ATOM
   1 C1             0.1070     1.5006     0.0396 C.3     
   2 C2             0.0582    -0.0054     0.0143 C.2     
   3 O3            -0.0727    -0.7840    -1.0692 O.3     
   4 N4            -0.0803    -1.9582    -0.7809 N.2     
   5 C5             0.0418    -2.1344     0.5113 C.2     
   6 C6             0.1438    -0.8340     1.0796 C.2     
   7 C7             0.3065    -0.4655     2.5318 C.3     
   8 O8            -0.9751    -0.1862     3.0988 O.3     
   9 C9            -1.0057     0.1638     4.4077 C.ar    
  10 N10            0.1228     0.2398     5.1012 N.ar    
  11 N11            0.1422     0.5674     6.3421 N.ar    
  12 C12           -0.9670     0.8521     7.0137 C.ar    
  13 C13           -2.2058     0.7984     6.3642 C.ar    
  14 C14           -2.2219     0.4498     5.0248 C.ar    
  15 C15           -3.5171     0.3769     4.2577 C.3     
  16 C16           -0.8941     1.2242     8.4436 C.2     
  17 O17           -1.9109     1.4844     9.0565 O.2     
  18 N18            0.2999     1.2748     9.0667 N.am    
  19 C19            0.3721     1.6433    10.4828 C.3     
  20 C20            0.1503     0.3990    11.3481 C.3     
  21 C21            0.3055     0.7784    12.8231 C.3     
  22 O22            1.6015     1.3421    13.0347 O.3     
  23 C23            1.8481     2.5349    12.2873 C.3     
  24 C24            1.7549     2.2260    10.7907 C.3     
  25 C25            0.0735    -3.4296     1.2359 C.ar    
  26 C26           -0.6059    -3.5821     2.4471 C.ar    
  27 C27           -0.5458    -4.8102     3.0837 C.ar    
  28 C28            0.1779    -5.8368     2.5057 C.ar    
  29 C29            0.2460    -7.1756     3.1943 C.3     
  30 N30            0.8093    -5.6627     1.3606 N.ar    
  31 C31            0.7764    -4.5144     0.7162 C.ar    
  32 H32            1.1404     1.8323    -0.0608 H       
  33 H33           -0.4837     1.8971    -0.7862 H       
  34 H34           -0.3003     1.8615     0.9839 H       
  35 H35            0.7680    -1.2950     3.0676 H       
  36 H36            0.9404     0.4175     2.6138 H       
  37 H37           -3.1207     1.0260     6.8911 H       
  38 H38           -3.9289    -0.6294     4.3348 H       
  39 H39           -4.2263     1.0926     4.6734 H       
  40 H40           -3.3327     0.6148     3.2101 H       
  41 H41            1.1114     1.0671     8.5776 H       
  42 H42           -0.3943     2.3856    10.7059 H       
  43 H43           -0.8531     0.0097    11.1758 H       
  44 H44            0.8867    -0.3614    11.0882 H       
  45 H45           -0.4571     1.5091    13.0927 H       
  46 H46            0.1910    -0.1119    13.4415 H       
  47 H47            1.1057     3.2885    12.5499 H       
  48 H48            2.8449     2.9099    12.5196 H       
  49 H49            2.5237     1.5025    10.5195 H       
  50 H50            1.8990     3.1433    10.2198 H       
  51 H51           -1.1635    -2.7627     2.8762 H       
  52 H52           -1.0583    -4.9645     4.0217 H       
  53 H53           -0.5765    -7.8030     2.8510 H       
  54 H54            1.1943    -7.6581     2.9576 H       
  55 H55            0.1696    -7.0340     4.2723 H       
  56 H56            1.3026    -4.4115    -0.2213 H       
@<TRIPOS>BOND
   1    1    2 1
   2    1   32 1
   3    1   33 1
   4    1   34 1
   5    2    6 2
   6    2    3 1
   7    3    4 1
   8    4    5 2
   9    5    6 1
  10    5   25 1
  11    6    7 1
  12    7    8 1
  13    7   35 1
  14    7   36 1
  15    8    9 1
  16    9   14 ar
  17    9   10 ar
  18   10   11 ar
  19   11   12 ar
  20   12   13 ar
  21   12   16 1
  22   13   14 ar
  23   13   37 1
  24   14   15 1
  25   15   38 1
  26   15   39 1
  27   15   40 1
  28   16   17 2
  29   16   18 am
  30   18   19 1
  31   18   41 1
  32   19   24 1
  33   19   20 1
  34   19   42 1
  35   20   21 1
  36   20   43 1
  37   20   44 1
  38   21   22 1
  39   21   45 1
  40   21   46 1
  41   22   23 1
  42   23   24 1
  43   23   47 1
  44   23   48 1
  45   24   49 1
  46   24   50 1
  47   25   31 ar
  48   25   26 ar
  49   26   27 ar
  50   26   51 1
  51   27   28 ar
  52   27   52 1
  53   28   29 1
  54   28   30 ar
  55   29   53 1
  56   29   54 1
  57   29   55 1
  58   30   31 ar
  59   31   56 1

#	End of record

