#	Name: ASD08150777
#	Creating user name:	WinNT
#	Creation time:	15. 06. 2019 21:16

#	Modifying user name:	WinNT
#	Modification time:	15. 06. 2019 21:16

#	Program:	/corina/corina34_cracker 3.40 0067  02.08.2006

@<TRIPOS>MOLECULE
ASD08150777
  29   30    0    0    0
SMALL
NO_CHARGES


@<TRIPOS>ATOM
   1 C1            -0.0173     1.3309     0.1132 C.2     
   2 N2            -0.0004     0.0024     0.2054 N.2     
   3 C3             1.1380    -0.6676     0.2916 C.2     
   4 C4             2.3416     0.0102     0.2876 C.2     
   5 C5             2.3319     1.4065     0.1910 C.2     
   6 N6             1.1468     2.0476     0.1042 N.am    
   7 C7            -1.2491     2.0039     0.0181 C.2     
   8 C8            -1.2643     3.3633    -0.0762 C.2     
   9 C9            -0.0537     4.0702    -0.0770 C.2     
  10 C10            1.1207     3.4059     0.0087 C.2     
  11 O11            3.3787     2.0348     0.1848 O.2     
  12 C12            2.4154     4.1771     0.0000 C.3     
  13 C13            1.1209    -2.1710     0.3946 C.3     
  14 C14            0.4601    -2.5844     1.7112 C.3     
  15 C15            0.5540    -4.1028     1.8741 C.3     
  16 Br16           0.1042    -2.9196    -1.1123 Br      
  17 H17            3.2749    -0.5286     0.3583 H       
  18 H18           -2.1750     1.4478     0.0194 H       
  19 H19           -2.2028     3.8926    -0.1502 H       
  20 H20           -0.0589     5.1476    -0.1515 H       
  21 H21            3.0212     3.8606    -0.8491 H       
  22 H22            2.2028     5.2430    -0.0825 H       
  23 H23            2.9586     3.9856     0.9254 H       
  24 H24            2.1430    -2.5487     0.3668 H       
  25 H25            0.9702    -2.0976     2.5424 H       
  26 H26           -0.5877    -2.2841     1.7019 H       
  27 H27            1.6017    -4.4032     1.8835 H       
  28 H28            0.0832    -4.3974     2.8121 H       
  29 H29            0.0438    -4.5897     1.0430 H       
@<TRIPOS>BOND
   1    1    2 2
   2    1    6 1
   3    1    7 1
   4    2    3 1
   5    3    4 2
   6    3   13 1
   7    4    5 1
   8    4   17 1
   9    5    6 am
  10    5   11 2
  11    6   10 1
  12    7    8 2
  13    7   18 1
  14    8    9 1
  15    8   19 1
  16    9   10 2
  17    9   20 1
  18   10   12 1
  19   12   21 1
  20   12   22 1
  21   12   23 1
  22   13   14 1
  23   13   16 1
  24   13   24 1
  25   14   15 1
  26   14   25 1
  27   14   26 1
  28   15   27 1
  29   15   28 1
  30   15   29 1

#	End of record

