#	Name: ASD03540136
#	Creating user name:	WinNT
#	Creation time:	15. 06. 2019 20:42

#	Modifying user name:	WinNT
#	Modification time:	15. 06. 2019 20:42

#	Program:	/corina/corina34_cracker 3.40 0067  02.08.2006

@<TRIPOS>MOLECULE
ASD03540136
  54   56    0    0    0
SMALL
NO_CHARGES


@<TRIPOS>ATOM
   1 C1            -0.0180     1.4744     0.0101 C.2     
   2 C2             0.0021    -0.0041     0.0020 C.ar    
   3 C3             1.2170    -0.6857    -0.0132 C.ar    
   4 C4             1.2270    -2.0788    -0.0203 C.ar    
   5 C5             2.5118    -2.8105    -0.0360 C.2     
   6 C6             0.0206    -2.7828    -0.0121 C.ar    
   7 C7            -1.1801    -2.1011     0.0030 C.ar    
   8 C8            -1.1970    -0.7204     0.0155 C.ar    
   9 O9             1.0263     2.0964     0.0035 O.2     
  10 N10           -1.1942     2.1323     0.0193 N.am    
  11 O11            3.5608    -2.1965    -0.0428 O.2     
  12 N12            2.5197    -4.1582    -0.0429 N.am    
  13 C13            3.7927    -4.8831    -0.0584 C.3     
  14 C14            3.5261    -6.3663    -0.0634 C.ar    
  15 C15            3.3928    -7.0396    -1.2632 C.ar    
  16 C16            3.1475    -8.4039    -1.2682 C.ar    
  17 C17            3.0363    -9.0915    -0.0659 C.ar    
  18 C18            3.1706    -8.4128     1.1315 C.ar    
  19 C19            3.4208    -7.0526     1.1318 C.ar    
  20 O20            3.0156    -9.0679    -2.4472 O.3     
  21 C21            3.1415    -8.2967    -3.6437 C.3     
  22 F22            2.7969   -10.4211    -0.0666 F       
  23 C23           -1.2141     3.5972     0.0274 C.3     
  24 C24           -2.6415     4.0801     0.0368 C.ar    
  25 C25           -3.2896     4.2948     1.2387 C.ar    
  26 C26           -4.6026     4.7390     1.2477 C.ar    
  27 C27           -5.2643     4.9675     0.0474 C.ar    
  28 C28           -4.6109     4.7511    -1.1521 C.ar    
  29 C29           -3.2991     4.3132    -1.1565 C.ar    
  30 O30           -5.2420     4.9504     2.4288 O.3     
  31 C31           -4.5001     4.6943     3.6230 C.3     
  32 F32           -6.5441     5.4001     0.0521 F       
  33 H33            2.1469    -0.1366    -0.0199 H       
  34 H34            0.0269    -3.8628    -0.0180 H       
  35 H35           -2.1100    -2.6502     0.0090 H       
  36 H36           -2.1395    -0.1933     0.0318 H       
  37 H37           -2.0276     1.6360     0.0206 H       
  38 H38            1.6826    -4.6482    -0.0375 H       
  39 H39            4.3543    -4.6119    -0.9524 H       
  40 H40            4.3710    -4.6209     0.8275 H       
  41 H41            3.4793    -6.5028    -2.1964 H       
  42 H42            3.0840    -8.9458     2.0668 H       
  43 H43            3.5301    -6.5248     2.0677 H       
  44 H44            4.1284    -7.8351    -3.6763 H       
  45 H45            3.0155    -8.9465    -4.5097 H       
  46 H46            2.3766    -7.5203    -3.6576 H       
  47 H47           -0.7010     3.9626     0.9169 H       
  48 H48           -0.7094     3.9723    -0.8630 H       
  49 H49           -2.7733     4.1161     2.1703 H       
  50 H50           -5.1241     4.9279    -2.0858 H       
  51 H51           -2.7887     4.1492    -2.0940 H       
  52 H52           -3.6191     5.3357     3.6480 H       
  53 H53           -5.1257     4.9023     4.4910 H       
  54 H54           -4.1896     3.6496     3.6409 H       
@<TRIPOS>BOND
   1    1    2 1
   2    1    9 2
   3    1   10 am
   4    2    3 ar
   5    2    8 ar
   6    3    4 ar
   7    3   33 1
   8    4    5 1
   9    4    6 ar
  10    5   11 2
  11    5   12 am
  12    6    7 ar
  13    6   34 1
  14    7    8 ar
  15    7   35 1
  16    8   36 1
  17   10   23 1
  18   10   37 1
  19   12   13 1
  20   12   38 1
  21   13   14 1
  22   13   39 1
  23   13   40 1
  24   14   15 ar
  25   14   19 ar
  26   15   16 ar
  27   15   41 1
  28   16   17 ar
  29   16   20 1
  30   17   18 ar
  31   17   22 1
  32   18   19 ar
  33   18   42 1
  34   19   43 1
  35   20   21 1
  36   21   44 1
  37   21   45 1
  38   21   46 1
  39   23   24 1
  40   23   47 1
  41   23   48 1
  42   24   25 ar
  43   24   29 ar
  44   25   26 ar
  45   25   49 1
  46   26   27 ar
  47   26   30 1
  48   27   28 ar
  49   27   32 1
  50   28   29 ar
  51   28   50 1
  52   29   51 1
  53   30   31 1
  54   31   52 1
  55   31   53 1
  56   31   54 1

#	End of record

