#	Name: ASD01420073
#	Creating user name:	WinNT
#	Creation time:	15. 06. 2019 19:20

#	Modifying user name:	WinNT
#	Modification time:	15. 06. 2019 19:20

#	Program:	/corina/corina34_cracker 3.40 0067  02.08.2006

@<TRIPOS>MOLECULE
ASD01420073
  61   65    0    0    0
SMALL
NO_CHARGES


@<TRIPOS>ATOM
   1 C1            -0.0144     1.2120     0.0087 C.2     
   2 O2             0.2415     0.1767     0.5933 O.2     
   3 C3             2.3286     1.3988    -0.8838 C.3     
   4 N4             0.9271     1.8084    -0.7492 N.am    
   5 C5             0.7458     2.9908    -1.5973 C.3     
   6 C6             2.0699     3.2925    -2.2523 C.ar    
   7 C7             2.4438     4.2903    -3.1362 C.ar    
   8 C8             3.7433     4.3534    -3.6005 C.ar    
   9 C9             4.6723     3.4191    -3.1818 C.ar    
  10 C10            4.3000     2.4234    -2.2995 C.ar    
  11 C11            2.9976     2.3594    -1.8341 C.ar    
  12 C12           -1.3552     1.8109     0.1241 C.ar    
  13 C13           -2.4979     0.9995     0.0512 C.ar    
  14 C14           -3.7539     1.5703     0.1611 C.ar    
  15 C15           -3.8808     2.9399     0.3421 C.ar    
  16 C16           -2.7487     3.7456     0.4145 C.ar    
  17 C17           -1.4945     3.1893     0.3125 C.ar    
  18 C18           -2.8968     5.2324     0.6113 C.3     
  19 F19           -1.6305     5.8257     0.6524 F       
  20 F20           -3.6306     5.7725    -0.4503 F       
  21 F21           -3.5667     5.4791     1.8145 F       
  22 O22           -5.1141     3.4961     0.4485 O.3     
  23 C23           -6.2338     2.6122     0.3652 C.3     
  24 C24           -7.5093     3.4028     0.5031 C.ar    
  25 C25           -8.1274     3.9193    -0.6204 C.ar    
  26 C26           -9.2973     4.6445    -0.4938 C.ar    
  27 C27           -9.8495     4.8530     0.7562 C.ar    
  28 C28           -9.2319     4.3359     1.8796 C.ar    
  29 C29           -8.0643     3.6069     1.7526 C.ar    
  30 O30           -2.3719    -0.3394    -0.1267 O.3     
  31 C31           -3.5788    -1.1018    -0.1913 C.3     
  32 C32           -3.2434    -2.5574    -0.3904 C.ar    
  33 C33           -3.0556    -3.3796     0.7049 C.ar    
  34 C34           -2.7480    -4.7148     0.5223 C.ar    
  35 C35           -2.6286    -5.2280    -0.7557 C.ar    
  36 C36           -2.8173    -4.4061    -1.8510 C.ar    
  37 C37           -3.1292    -3.0719    -1.6684 C.ar    
  38 H38            2.8201     1.4383     0.0883 H       
  39 H39            2.3808     0.3864    -1.2843 H       
  40 H40           -0.0057     2.7866    -2.3600 H       
  41 H41            0.4336     3.8386    -0.9875 H       
  42 H42            1.7183     5.0204    -3.4635 H       
  43 H43            4.0333     5.1320    -4.2906 H       
  44 H44            5.6885     3.4673    -3.5445 H       
  45 H45            5.0258     1.6934    -1.9728 H       
  46 H46           -4.6358     0.9493     0.1055 H       
  47 H47           -0.6181     3.8175     0.3737 H       
  48 H48           -6.2241     2.1035    -0.5988 H       
  49 H49           -6.1750     1.8748     1.1657 H       
  50 H50           -7.6959     3.7564    -1.5970 H       
  51 H51           -9.7798     5.0486    -1.3715 H       
  52 H52          -10.7632     5.4203     0.8551 H       
  53 H53           -9.6632     4.4990     2.8562 H       
  54 H54           -7.5838     3.1997     2.6299 H       
  55 H55           -4.1351    -0.9809     0.7382 H       
  56 H56           -4.1857    -0.7513    -1.0261 H       
  57 H57           -3.1489    -2.9786     1.7034 H       
  58 H58           -2.6005    -5.3569     1.3780 H       
  59 H59           -2.3875    -6.2711    -0.8984 H       
  60 H60           -2.7237    -4.8070    -2.8495 H       
  61 H61           -3.2803    -2.4306    -2.5241 H       
@<TRIPOS>BOND
   1    1    2 2
   2    1    4 am
   3    1   12 1
   4    3    4 1
   5    3   11 1
   6    3   38 1
   7    3   39 1
   8    4    5 1
   9    5    6 1
  10    5   40 1
  11    5   41 1
  12    6    7 ar
  13    6   11 ar
  14    7    8 ar
  15    7   42 1
  16    8    9 ar
  17    8   43 1
  18    9   10 ar
  19    9   44 1
  20   10   11 ar
  21   10   45 1
  22   12   13 ar
  23   12   17 ar
  24   13   14 ar
  25   13   30 1
  26   14   15 ar
  27   14   46 1
  28   15   16 ar
  29   15   22 1
  30   16   17 ar
  31   16   18 1
  32   17   47 1
  33   18   19 1
  34   18   20 1
  35   18   21 1
  36   22   23 1
  37   23   24 1
  38   23   48 1
  39   23   49 1
  40   24   25 ar
  41   24   29 ar
  42   25   26 ar
  43   25   50 1
  44   26   27 ar
  45   26   51 1
  46   27   28 ar
  47   27   52 1
  48   28   29 ar
  49   28   53 1
  50   29   54 1
  51   30   31 1
  52   31   32 1
  53   31   55 1
  54   31   56 1
  55   32   33 ar
  56   32   37 ar
  57   33   34 ar
  58   33   57 1
  59   34   35 ar
  60   34   58 1
  61   35   36 ar
  62   35   59 1
  63   36   37 ar
  64   36   60 1
  65   37   61 1

#	End of record

