#	Name: ASD01948030
#	Creating user name:	WinNT
#	Creation time:	15. 06. 2019 20:13

#	Modifying user name:	WinNT
#	Modification time:	15. 06. 2019 20:13

#	Program:	/corina/corina34_cracker 3.40 0067  02.08.2006

@<TRIPOS>MOLECULE
ASD01948030
  50   52    0    0    0
SMALL
NO_CHARGES


@<TRIPOS>ATOM
   1 C1            -0.2085     1.1054    -0.3191 C.2     
   2 C2             0.0001    -0.2495    -0.2883 C.2     
   3 C3             1.2957    -0.7612    -0.1359 C.2     
   4 C4             2.3605     0.1238    -0.0177 C.2     
   5 C5             2.1069     1.4926    -0.0542 C.2     
   6 N6             0.8476     1.9562    -0.2016 N.am    
   7 N7            -1.4086     1.7808    -0.4665 N.am    
   8 C8            -1.1564     3.2252    -0.4427 C.3     
   9 C9             0.3654     3.3463    -0.2646 C.3     
  10 C10           -2.6173     1.2020    -0.6100 C.2     
  11 O11           -2.7261    -0.0053    -0.5289 O.2     
  12 O12           -3.7040     1.9617    -0.8431 O.3     
  13 O13            3.0336     2.2820     0.0491 O.2     
  14 N14           -1.1479    -1.1753    -0.4160 N.pl3   
  15 O15           -1.5242    -1.5305    -1.5186 O.2     
  16 O16           -1.7163    -1.5819     0.5816 O.2     
  17 C17            3.7676    -0.3896     0.1481 C.3     
  18 N18            1.5118    -2.1287    -0.1033 N.pl3   
  19 C19            1.0251    -2.8887     0.9663 C.ar    
  20 C20            1.1842    -4.2707     0.9688 C.ar    
  21 C21            0.7020    -5.0179     2.0273 C.ar    
  22 C22            0.0620    -4.3918     3.0827 C.ar    
  23 C23           -0.0974    -3.0178     3.0817 C.ar    
  24 C24            0.3878    -2.2646     2.0297 C.ar    
  25 F25            1.8085    -4.8817    -0.0617 F       
  26 Br26          -0.5963    -5.4169     4.5289 Br      
  27 C27           -4.9729     1.2706    -0.9869 C.3     
  28 C28           -5.2802     0.4963     0.2964 C.3     
  29 C29           -6.0831     2.2912    -1.2450 C.3     
  30 C30           -4.8924     0.2961    -2.1637 C.3     
  31 H31           -1.4643     3.6809    -1.3838 H       
  32 H32           -1.6782     3.6890     0.3944 H       
  33 H33            0.6005     3.8719     0.6609 H       
  34 H34            0.8058     3.8625    -1.1177 H       
  35 H35            4.1943    -0.6030    -0.8320 H       
  36 H36            4.3726     0.3645     0.6514 H       
  37 H37            3.7536    -1.3018     0.7446 H       
  38 H38            2.0005    -2.5598    -0.8218 H       
  39 H39            0.8244    -6.0910     2.0304 H       
  40 H40           -0.5976    -2.5325     3.9067 H       
  41 H41            0.2671    -1.1914     2.0327 H       
  42 H42           -5.3376     1.1906     1.1347 H       
  43 H43           -6.2327    -0.0225     0.1885 H       
  44 H44           -4.4892    -0.2308     0.4803 H       
  45 H45           -5.8642     2.8429    -2.1592 H       
  46 H46           -7.0356     1.7725    -1.3529 H       
  47 H47           -6.1405     2.9855    -0.4066 H       
  48 H48           -4.1014    -0.4310    -1.9798 H       
  49 H49           -5.8449    -0.2227    -2.2716 H       
  50 H50           -4.6734     0.8477    -3.0779 H       
@<TRIPOS>BOND
   1    1    2 2
   2    1    6 1
   3    1    7 1
   4    2    3 1
   5    2   14 1
   6    3    4 2
   7    3   18 1
   8    4    5 1
   9    4   17 1
  10    5    6 am
  11    5   13 2
  12    6    9 1
  13    7    8 1
  14    7   10 am
  15    8    9 1
  16    8   31 1
  17    8   32 1
  18    9   33 1
  19    9   34 1
  20   10   11 2
  21   10   12 1
  22   12   27 1
  23   14   15 2
  24   14   16 2
  25   17   35 1
  26   17   36 1
  27   17   37 1
  28   18   19 1
  29   18   38 1
  30   19   20 ar
  31   19   24 ar
  32   20   21 ar
  33   20   25 1
  34   21   22 ar
  35   21   39 1
  36   22   23 ar
  37   22   26 1
  38   23   24 ar
  39   23   40 1
  40   24   41 1
  41   27   28 1
  42   27   30 1
  43   27   29 1
  44   28   42 1
  45   28   43 1
  46   28   44 1
  47   29   45 1
  48   29   46 1
  49   29   47 1
  50   30   48 1
  51   30   49 1
  52   30   50 1

#	End of record

