#	Name: ASD01941054
#	Creating user name:	WinNT
#	Creation time:	15. 06. 2019 20:13

#	Modifying user name:	WinNT
#	Modification time:	15. 06. 2019 20:13

#	Program:	/corina/corina34_cracker 3.40 0067  02.08.2006

@<TRIPOS>MOLECULE
ASD01941054
  43   45    0    0    0
SMALL
NO_CHARGES


@<TRIPOS>ATOM
   1 N1            -0.0583     1.9505     1.5614 N.am    
   2 C2             0.1383     0.6155     1.6719 C.2     
   3 N3            -0.7727    -0.2577     1.3393 N.2     
   4 C4            -1.9655     0.1279     0.8650 C.2     
   5 C5            -2.2330     1.4970     0.7261 C.2     
   6 C6            -1.2342     2.4314     1.0969 C.2     
   7 N7            -2.9189    -0.7872     0.5165 N.am    
   8 C8            -4.1161    -0.4071     0.0397 C.2     
   9 C9            -4.4515     0.9410    -0.1256 C.2     
  10 C10           -3.5324     1.9228     0.2097 C.2     
  11 C11           -2.6286    -2.2153     0.6658 C.3     
  12 O12           -4.9343    -1.2625    -0.2580 O.2     
  13 O13           -1.4253     3.6301     0.9922 O.2     
  14 N14           -3.8345     3.2634     0.0581 N.pl3   
  15 C15           -3.1321     4.0380    -0.8714 C.ar    
  16 C16           -2.2263     3.4371    -1.7346 C.ar    
  17 C17           -1.5338     4.2044    -2.6516 C.ar    
  18 C18           -1.7414     5.5704    -2.7106 C.ar    
  19 C19           -2.6430     6.1741    -1.8519 C.ar    
  20 C20           -3.3441     5.4115    -0.9365 C.ar    
  21 F21           -4.2244     6.0007    -0.0981 F       
  22 I22           -0.6879     6.7284    -4.1028 I       
  23 C23            1.0054     2.8789     1.9525 C.3     
  24 C24            1.3433     2.6739     3.4306 C.3     
  25 O25            1.8936     1.3683     3.6168 O.3     
  26 F26           -5.6657     1.2842    -0.6085 F       
  27 C27            2.2505     2.6149     1.1034 C.3     
  28 O28            2.7592     1.3120     1.3962 O.3     
  29 H29            1.0856     0.2596     2.0494 H       
  30 H30           -2.9297    -2.5453     1.6600 H       
  31 H31           -3.1803    -2.7788    -0.0867 H       
  32 H32           -1.5597    -2.3844     0.5351 H       
  33 H33           -4.5335     3.6670     0.5962 H       
  34 H34           -2.0625     2.3705    -1.6892 H       
  35 H35           -0.8290     3.7367    -3.3232 H       
  36 H36           -2.8027     7.2412    -1.9002 H       
  37 H37            0.6691     3.9037     1.7954 H       
  38 H38            2.0705     3.4228     3.7443 H       
  39 H39            0.4371     2.7747     4.0278 H       
  40 H40            2.1317     1.1687     4.5325 H       
  41 H41            1.9889     2.6738     0.0468 H       
  42 H42            3.0110     3.3616     1.3316 H       
  43 H43            3.5506     1.0765     0.8927 H       
@<TRIPOS>BOND
   1    1    2 1
   2    1   23 1
   3    1    6 am
   4    2    3 2
   5    2   29 1
   6    3    4 1
   7    4    5 2
   8    4    7 1
   9    5    6 1
  10    5   10 1
  11    6   13 2
  12    7    8 am
  13    7   11 1
  14    8    9 1
  15    8   12 2
  16    9   10 2
  17    9   26 1
  18   10   14 1
  19   11   30 1
  20   11   31 1
  21   11   32 1
  22   14   15 1
  23   14   33 1
  24   15   16 ar
  25   15   20 ar
  26   16   17 ar
  27   16   34 1
  28   17   18 ar
  29   17   35 1
  30   18   19 ar
  31   18   22 1
  32   19   20 ar
  33   19   36 1
  34   20   21 1
  35   23   24 1
  36   23   27 1
  37   23   37 1
  38   24   25 1
  39   24   38 1
  40   24   39 1
  41   25   40 1
  42   27   28 1
  43   27   41 1
  44   27   42 1
  45   28   43 1

#	End of record

