#	Name: ASD05580003
#	Creating user name:	WinNT
#	Creation time:	15. 06. 2019 21:01

#	Modifying user name:	WinNT
#	Modification time:	15. 06. 2019 21:01

#	Program:	/corina/corina34_cracker 3.40 0067  02.08.2006

@<TRIPOS>MOLECULE
ASD05580003
  61   63    0    0    0
SMALL
NO_CHARGES


@<TRIPOS>ATOM
   1 C1            -0.0353     1.6446     0.0958 C.3     
   2 C2            -0.0426     0.1147     0.0810 C.3     
   3 C3             0.6472    -0.3864    -1.1894 C.3     
   4 C4             2.0917     0.1170    -1.2179 C.3     
   5 C5             2.0990     1.6469    -1.2031 C.3     
   6 C6             1.4092     2.1480     0.0673 C.3     
   7 C7             3.5218     2.1427    -1.2311 C.2     
   8 N8             4.3607     1.8108    -0.2611 N.2     
   9 C9             5.6143     2.2293    -0.2568 C.2     
  10 N10            6.1065     3.0221    -1.2473 N.am    
  11 C11            5.3092     3.4008    -2.2691 C.2     
  12 C12            3.9619     2.9483    -2.2817 C.2     
  13 O13            5.7364     4.1107    -3.1626 O.2     
  14 S14            6.6752     1.7491     1.0655 S.3     
  15 C15            5.5271     0.7459     2.0411 C.3     
  16 C16            6.2361     0.2131     3.2595 C.2     
  17 N17            5.5738    -0.5654     4.1380 N.am    
  18 O18            7.4028     0.4849     3.4496 O.2     
  19 C19            6.2527    -1.1288     5.2241 C.ar    
  20 C20            7.3984    -0.5206     5.7197 C.ar    
  21 C21            8.0664    -1.0793     6.7919 C.ar    
  22 C22            7.5956    -2.2431     7.3713 C.ar    
  23 C23            6.4548    -2.8513     6.8800 C.ar    
  24 C24            5.7789    -2.2944     5.8122 C.ar    
  25 C25            4.5356    -2.9575     5.2779 C.3     
  26 C26            8.3275    -2.8504     8.5403 C.3     
  27 C27            7.7694    -2.2776     9.8447 C.3     
  28 C28            8.5124    -2.8942    11.0315 C.3     
  29 C29            7.9544    -2.3214    12.3359 C.3     
  30 C30            3.0738     3.3202    -3.3417 C.1     
  31 N31            2.3692     3.6152    -4.1825 N.1     
  32 H32           -0.5678     2.0189    -0.7785 H       
  33 H33           -0.5267     2.0016     1.0009 H       
  34 H34            0.4899    -0.2596     0.9553 H       
  35 H35           -1.0717    -0.2439     0.1013 H       
  36 H36            0.6420    -1.4763    -1.1999 H       
  37 H37            0.1147    -0.0121    -2.0637 H       
  38 H38            2.6242    -0.2573    -0.3435 H       
  39 H39            2.5831    -0.2400    -2.1229 H       
  40 H40            1.5665     2.0212    -2.0774 H       
  41 H41            1.4145     3.2379     0.0778 H       
  42 H42            1.9417     1.7737     0.9416 H       
  43 H43            7.0306     3.3156    -1.2191 H       
  44 H44            4.6819     1.3599     2.3520 H       
  45 H45            5.1682    -0.0869     1.4364 H       
  46 H46            4.6264    -0.7352     4.0174 H       
  47 H47            7.7670     0.3881     5.2671 H       
  48 H48            8.9575    -0.6068     7.1779 H       
  49 H49            6.0896    -3.7603     7.3347 H       
  50 H50            3.6623    -2.5661     5.7996 H       
  51 H51            4.4440    -2.7520     4.2114 H       
  52 H52            4.6013    -4.0339     5.4362 H       
  53 H53            8.1925    -3.9320     8.5313 H       
  54 H54            9.3894    -2.6162     8.4656 H       
  55 H55            7.9044    -1.1960     9.8537 H       
  56 H56            6.7075    -2.5118     9.9194 H       
  57 H57            8.3774    -3.9758    11.0226 H       
  58 H58            9.5744    -2.6600    10.9568 H       
  59 H59            8.4837    -2.7607    13.1815 H       
  60 H60            8.0894    -1.2398    12.3449 H       
  61 H61            6.8925    -2.5556    12.4106 H       
@<TRIPOS>BOND
   1    1    2 1
   2    1    6 1
   3    1   32 1
   4    1   33 1
   5    2    3 1
   6    2   34 1
   7    2   35 1
   8    3    4 1
   9    3   36 1
  10    3   37 1
  11    4    5 1
  12    4   38 1
  13    4   39 1
  14    5    6 1
  15    5    7 1
  16    5   40 1
  17    6   41 1
  18    6   42 1
  19    7    8 1
  20    7   12 2
  21    8    9 2
  22    9   10 1
  23    9   14 1
  24   10   11 am
  25   10   43 1
  26   11   12 1
  27   11   13 2
  28   12   30 1
  29   14   15 1
  30   15   16 1
  31   15   44 1
  32   15   45 1
  33   16   17 am
  34   16   18 2
  35   17   19 1
  36   17   46 1
  37   19   20 ar
  38   19   24 ar
  39   20   21 ar
  40   20   47 1
  41   21   22 ar
  42   21   48 1
  43   22   23 ar
  44   22   26 1
  45   23   24 ar
  46   23   49 1
  47   24   25 1
  48   25   50 1
  49   25   51 1
  50   25   52 1
  51   26   27 1
  52   26   53 1
  53   26   54 1
  54   27   28 1
  55   27   55 1
  56   27   56 1
  57   28   29 1
  58   28   57 1
  59   28   58 1
  60   29   59 1
  61   29   60 1
  62   29   61 1
  63   30   31 3

#	End of record

