#	Name: ASD01816754
#	Creating user name:	WinNT
#	Creation time:	15. 06. 2019 19:35

#	Modifying user name:	WinNT
#	Modification time:	15. 06. 2019 19:35

#	Program:	/corina/corina34_cracker 3.40 0067  02.08.2006

@<TRIPOS>MOLECULE
ASD01816754
  57   60    0    0    0
SMALL
NO_CHARGES


@<TRIPOS>ATOM
   1 C1             0.2618     0.5297     0.4046 C.2     
   2 C2             0.4549    -0.8576     0.3557 C.2     
   3 C3             1.7200    -1.3560     0.2463 C.2     
   4 C4             2.8084    -0.4697     0.1843 C.2     
   5 N5             2.5907     0.8805     0.2344 N.am    
   6 C6             1.3216     1.3671     0.3435 C.2     
   7 C7             4.1094    -0.9788     0.0719 C.2     
   8 C8             5.1735    -0.1257     0.0109 C.2     
   9 C9             4.9455     1.2611     0.0622 C.2     
  10 C10            3.6260     1.7423     0.1757 C.2     
  11 C11            4.3337    -2.4680     0.0188 C.3     
  12 O12            3.4195     2.9434     0.2209 O.2     
  13 C13            6.0715     2.1985    -0.0009 C.2     
  14 N14            6.6915     2.4289    -1.1752 N.am    
  15 O15            6.4462     2.7683     1.0072 O.2     
  16 N16            4.4197    -2.9007    -1.3824 N.3     
  17 C17            4.8711    -4.2949    -1.4760 C.3     
  18 C18            5.0884    -4.6646    -2.9450 C.3     
  19 C19            3.7760    -4.4809    -3.7120 C.3     
  20 C20            3.3026    -3.0329    -3.5584 C.3     
  21 C21            3.1370    -2.7104    -2.0716 C.3     
  22 C22            3.9983    -4.7860    -5.1710 C.ar    
  23 N23            5.2278    -4.8539    -5.6425 N.ar    
  24 C24            5.4702    -5.1180    -6.9117 C.ar    
  25 C25            4.4334    -5.3342    -7.7992 C.ar    
  26 C26            3.1265    -5.2710    -7.3400 C.ar    
  27 C27            2.9112    -4.9970    -5.9982 C.ar    
  28 C28            2.7563    -5.3922    -3.1675 C.1     
  29 N29            1.9693    -6.0955    -2.7472 N.1     
  30 C30            7.7574     3.4306    -1.2565 C.3     
  31 O31            6.3127     1.7027    -2.3302 O.3     
  32 C32            5.3192     2.3526    -3.1255 C.3     
  33 H33           -0.7374     0.9314     0.4867 H       
  34 H34           -0.3913    -1.5268     0.4048 H       
  35 H35            1.8836    -2.4228     0.2079 H       
  36 H36            1.1611     2.4344     0.3822 H       
  37 H37            6.1786    -0.5113    -0.0754 H       
  38 H38            5.2630    -2.7141     0.5327 H       
  39 H39            3.5029    -2.9782     0.5062 H       
  40 H40            5.8074    -4.4109    -0.9300 H       
  41 H41            4.1154    -4.9511    -1.0443 H       
  42 H42            5.8540    -4.0179    -3.3737 H       
  43 H43            5.4084    -5.7042    -3.0151 H       
  44 H44            4.0400    -2.3605    -3.9967 H       
  45 H45            2.3467    -2.9067    -4.0668 H       
  46 H46            2.3894    -3.3740    -1.6371 H       
  47 H47            2.8138    -1.6757    -1.9582 H       
  48 H48            6.4909    -5.1654    -7.2615 H       
  49 H49            4.6384    -5.5494    -8.8375 H       
  50 H50            2.2962    -5.4353    -8.0108 H       
  51 H51            1.9065    -4.9406    -5.6059 H       
  52 H52            8.7175     2.9572    -1.0510 H       
  53 H53            7.7728     3.8644    -2.2564 H       
  54 H54            7.5750     4.2157    -0.5227 H       
  55 H55            4.4185     2.5029    -2.5303 H       
  56 H56            5.6975     3.3178    -3.4621 H       
  57 H57            5.0838     1.7328    -3.9907 H       
@<TRIPOS>BOND
   1    1    2 1
   2    1    6 2
   3    1   33 1
   4    2    3 2
   5    2   34 1
   6    3    4 1
   7    3   35 1
   8    4    5 1
   9    4    7 2
  10    5    6 1
  11    5   10 am
  12    6   36 1
  13    7    8 1
  14    7   11 1
  15    8    9 2
  16    8   37 1
  17    9   10 1
  18    9   13 1
  19   10   12 2
  20   11   16 1
  21   11   38 1
  22   11   39 1
  23   13   15 2
  24   13   14 am
  25   14   30 1
  26   14   31 1
  27   16   17 1
  28   16   21 1
  29   17   18 1
  30   17   40 1
  31   17   41 1
  32   18   19 1
  33   18   42 1
  34   18   43 1
  35   19   20 1
  36   19   22 1
  37   19   28 1
  38   20   21 1
  39   20   44 1
  40   20   45 1
  41   21   46 1
  42   21   47 1
  43   22   23 ar
  44   22   27 ar
  45   23   24 ar
  46   24   25 ar
  47   24   48 1
  48   25   26 ar
  49   25   49 1
  50   26   27 ar
  51   26   50 1
  52   27   51 1
  53   28   29 3
  54   30   52 1
  55   30   53 1
  56   30   54 1
  57   31   32 1
  58   32   55 1
  59   32   56 1
  60   32   57 1

#	End of record

