#	Name: ASD01918204
#	Creating user name:	WinNT
#	Creation time:	15. 06. 2019 20:11

#	Modifying user name:	WinNT
#	Modification time:	15. 06. 2019 20:11

#	Program:	/corina/corina34_cracker 3.40 0067  02.08.2006

@<TRIPOS>MOLECULE
ASD01918204
  40   43    0    0    0
SMALL
NO_CHARGES


@<TRIPOS>ATOM
   1 C1             0.0466     1.3137    -0.0375 C.ar    
   2 C2             0.1991    -0.0756    -0.2767 C.ar    
   3 C3             1.4831    -0.6564    -0.1400 C.ar    
   4 N4             2.5265     0.1030     0.2098 N.ar    
   5 C5             2.4002     1.3889     0.4346 C.ar    
   6 C6             1.1760     2.0372     0.3217 C.ar    
   7 C7            -1.2728     1.9725    -0.1722 C.ar    
   8 C8            -2.2621     1.7613     0.7883 C.ar    
   9 C9            -3.4894     2.3775     0.6578 C.ar    
  10 C10           -3.7402     3.2045    -0.4243 C.ar    
  11 C11           -2.7619     3.4173    -1.3810 C.ar    
  12 C12           -1.5290     2.8111    -1.2572 C.ar    
  13 C13           -0.8907    -0.8763    -0.6425 C.ar    
  14 C14           -0.7058    -2.2082    -0.8640 C.ar    
  15 C15            0.5549    -2.7860    -0.7309 C.ar    
  16 C16            1.6379    -2.0351    -0.3769 C.ar    
  17 S17            1.0577     3.7674     0.6330 S.o2    
  18 C18            0.0638     3.9715     2.0735 C.ar    
  19 O19            2.3646     4.2025     0.9823 O.2     
  20 O20            0.3174     4.3198    -0.4469 O.2     
  21 C21           -1.2826     4.2593     1.9485 C.ar    
  22 C22            0.6297     3.8380     3.3277 C.ar    
  23 C23           -0.1491     3.9974     4.4582 C.ar    
  24 C24           -1.4964     4.2913     4.3343 C.ar    
  25 C25           -2.0632     4.4196     3.0776 C.ar    
  26 F26           -2.2587     4.4468     5.4388 F       
  27 Cl27          -5.2869     3.9768    -0.5823 Cl      
  28 Cl28           0.7511    -4.4864    -1.0202 Cl      
  29 F29            2.8527    -2.6129    -0.2521 F       
  30 H30            3.2726     1.9605     0.7152 H       
  31 H31           -2.0677     1.1163     1.6324 H       
  32 H32           -4.2561     2.2145     1.4006 H       
  33 H33           -2.9629     4.0630    -2.2231 H       
  34 H34           -0.7650     2.9819    -2.0011 H       
  35 H35           -1.8730    -0.4400    -0.7482 H       
  36 H36           -1.5473    -2.8237    -1.1460 H       
  37 H37           -1.7245     4.3594     0.9681 H       
  38 H38            1.6806     3.6088     3.4241 H       
  39 H39            0.2931     3.8924     5.4379 H       
  40 H40           -3.1149     4.6448     2.9797 H       
@<TRIPOS>BOND
   1    1    2 ar
   2    1    6 ar
   3    1    7 1
   4    2    3 ar
   5    2   13 ar
   6    3    4 ar
   7    3   16 ar
   8    4    5 ar
   9    5    6 ar
  10    5   30 1
  11    6   17 1
  12    7    8 ar
  13    7   12 ar
  14    8    9 ar
  15    8   31 1
  16    9   10 ar
  17    9   32 1
  18   10   11 ar
  19   10   27 1
  20   11   12 ar
  21   11   33 1
  22   12   34 1
  23   13   14 ar
  24   13   35 1
  25   14   15 ar
  26   14   36 1
  27   15   16 ar
  28   15   28 1
  29   16   29 1
  30   17   18 1
  31   17   19 2
  32   17   20 2
  33   18   22 ar
  34   18   21 ar
  35   21   25 ar
  36   21   37 1
  37   22   23 ar
  38   22   38 1
  39   23   24 ar
  40   23   39 1
  41   24   25 ar
  42   24   26 1
  43   25   40 1

#	End of record

