#	Name: ASD03570018
#	Creating user name:	WinNT
#	Creation time:	15. 06. 2019 20:43

#	Modifying user name:	WinNT
#	Modification time:	15. 06. 2019 20:43

#	Program:	/corina/corina34_cracker 3.40 0067  02.08.2006

@<TRIPOS>MOLECULE
ASD03570018
  39   41    0    0    0
SMALL
NO_CHARGES


@<TRIPOS>ATOM
   1 C1             0.3561     1.0865     0.4307 C.ar    
   2 C2             0.0826    -0.1749    -0.0977 C.ar    
   3 C3             1.0749    -0.9016    -0.7299 C.ar    
   4 C4             2.3553    -0.3710    -0.8400 C.ar    
   5 C5             2.6267     0.9044    -0.3043 C.ar    
   6 C6             1.6053     1.6231     0.3324 C.ar    
   7 N7             3.5216    -0.8395    -1.3982 N.pl3   
   8 C8             4.5112     0.1115    -1.2236 C.2     
   9 C9             3.9904     1.1793    -0.5615 C.2     
  10 C10            4.7329     2.4316    -0.1723 C.3     
  11 C11            4.6244     3.4601    -1.2998 C.3     
  12 O12           -1.1678    -0.6938     0.0099 O.3     
  13 C13           -1.4491    -1.4604     1.0960 C.ar    
  14 C14           -0.5097    -1.6047     2.1070 C.ar    
  15 C15           -2.6784    -2.0957     1.1988 C.ar    
  16 C16           -2.9620    -2.8741     2.3042 C.ar    
  17 C17           -2.0221    -3.0204     3.3077 C.ar    
  18 C18           -0.7983    -2.3842     3.2103 C.ar    
  19 C19            5.9007    -0.0125    -1.6791 C.2     
  20 O20            6.6911     0.8878    -1.4715 O.2     
  21 O21            6.3009    -1.1251    -2.3280 O.3     
  22 C22            5.3668     4.7124    -0.9106 C.2     
  23 O23            5.9255     4.7758     0.1588 O.2     
  24 O24            5.4076     5.7574    -1.7521 O.3     
  25 H25           -0.4296     1.6447     0.9179 H       
  26 H26            0.8561    -1.8779    -1.1364 H       
  27 H27            1.8078     2.6007     0.7442 H       
  28 H28            3.6322    -1.6955    -1.8410 H       
  29 H29            4.2981     2.8436     0.7384 H       
  30 H30            5.7820     2.1927     0.0018 H       
  31 H31            5.0592     3.0481    -2.2105 H       
  32 H32            3.5752     3.6990    -1.4740 H       
  33 H33            0.4465    -1.1083     2.0312 H       
  34 H34           -3.4131    -1.9814     0.4154 H       
  35 H35           -3.9188    -3.3684     2.3849 H       
  36 H36           -2.2459    -3.6291     4.1713 H       
  37 H37           -0.0659    -2.5002     3.9955 H       
  38 H38            7.2256    -1.1609    -2.6087 H       
  39 H39            5.8960     6.5387    -1.4585 H       
@<TRIPOS>BOND
   1    1    2 ar
   2    1    6 ar
   3    1   25 1
   4    2    3 ar
   5    2   12 1
   6    3    4 ar
   7    3   26 1
   8    4    5 ar
   9    4    7 1
  10    5    6 ar
  11    5    9 1
  12    6   27 1
  13    7    8 1
  14    7   28 1
  15    8    9 2
  16    8   19 1
  17    9   10 1
  18   10   11 1
  19   10   29 1
  20   10   30 1
  21   11   22 1
  22   11   31 1
  23   11   32 1
  24   12   13 1
  25   13   14 ar
  26   13   15 ar
  27   14   18 ar
  28   14   33 1
  29   15   16 ar
  30   15   34 1
  31   16   17 ar
  32   16   35 1
  33   17   18 ar
  34   17   36 1
  35   18   37 1
  36   19   20 2
  37   19   21 1
  38   21   38 1
  39   22   23 2
  40   22   24 1
  41   24   39 1

#	End of record

