#	Name: ASD01028070
#	Creating user name:	WinNT
#	Creation time:	15. 06. 2019 18:56

#	Modifying user name:	WinNT
#	Modification time:	15. 06. 2019 18:56

#	Program:	/corina/corina34_cracker 3.40 0067  02.08.2006

@<TRIPOS>MOLECULE
ASD01028070
  56   60    0    0    0
SMALL
NO_CHARGES


@<TRIPOS>ATOM
   1 C1            -0.0660     1.1052     0.3006 C.3     
   2 C2            -0.0498    -0.4033     0.5605 C.3     
   3 C3            -0.7659    -0.7007     1.8779 C.3     
   4 C4             1.8691     1.9240     1.4997 C.3     
   5 N5             1.3131     1.5979     0.1783 N.3     
   6 N6             3.9450     2.5771     2.6373 N.3     
   7 N7             3.0726    -0.6718     4.6044 N.pl3   
   8 C8             4.2251    -0.0019     5.0663 C.ar    
   9 C9             4.3880     1.3233     4.6800 C.ar    
  10 C10            3.3305     1.9808     3.8282 C.3     
  11 C11            5.1741    -0.6236     5.8579 C.ar    
  12 C12            6.2972     0.0889     6.2626 C.ar    
  13 C13            6.4627     1.4114     5.8697 C.ar    
  14 C14            5.5128     2.0205     5.0697 C.ar    
  15 O15           -0.9359    -2.1104     2.0422 O.3     
  16 C16           -0.1703    -2.7113     2.9922 C.ar    
  17 C17            0.9076    -2.0340     3.4966 C.ar    
  18 C18            1.7093    -2.6433     4.4687 C.ar    
  19 C19            2.8328    -1.9756     5.0257 C.ar    
  20 N20            3.5698    -2.6123     5.9103 N.ar    
  21 O21            5.2369    -1.8827     6.3742 O.3     
  22 C22            6.4437    -1.9807     7.1375 C.3     
  23 O23            7.0880    -0.7076     7.0333 O.3     
  24 C24           -0.4858    -3.9948     3.4565 C.ar    
  25 C25            0.2932    -4.6138     4.4114 C.ar    
  26 C26            1.4132    -3.9501     4.9244 C.ar    
  27 N27            2.2286    -4.5071     5.8333 N.ar    
  28 C28            3.2644    -3.8456     6.2943 C.ar    
  29 C29            5.4070     2.4380     2.6735 C.3     
  30 C30            3.3930     2.0074     1.4031 C.3     
  31 O31           -1.5737    -4.6386     2.9589 O.3     
  32 H32           -0.6075     1.3086    -0.6232 H       
  33 H33           -0.5602     1.6113     1.1299 H       
  34 H34           -0.5591    -0.9179    -0.2542 H       
  35 H35            0.9817    -0.7505     0.6212 H       
  36 H36           -0.1752    -0.3094     2.7062 H       
  37 H37           -1.7429    -0.2174     1.8747 H       
  38 H38            1.4730     2.8828     1.8342 H       
  39 H39            1.5919     1.1473     2.2124 H       
  40 H40            1.8947     0.9289    -0.3037 H       
  41 H41            2.4554    -0.2289     4.0013 H       
  42 H42            2.8325     2.7590     4.4065 H       
  43 H43            2.5973     1.2347     3.5219 H       
  44 H44            7.3335     1.9643     6.1895 H       
  45 H45            5.6519     3.0427     4.7499 H       
  46 H46            1.1373    -1.0383     3.1470 H       
  47 H47            6.2110    -2.1987     8.1798 H       
  48 H48            7.0851    -2.7600     6.7260 H       
  49 H49            0.0406    -5.6040     4.7608 H       
  50 H50            3.9001    -4.3291     7.0213 H       
  51 H51            5.8075     2.5482     1.6658 H       
  52 H52            5.8294     3.2083     3.3187 H       
  53 H53            5.6688     1.4542     3.0630 H       
  54 H54            3.8010     1.0079     1.2522 H       
  55 H55            3.6678     2.6394     0.5586 H       
  56 H56           -1.3883    -5.1783     2.1782 H       
@<TRIPOS>BOND
   1    1    2 1
   2    1    5 1
   3    1   32 1
   4    1   33 1
   5    2    3 1
   6    2   34 1
   7    2   35 1
   8    3   15 1
   9    3   36 1
  10    3   37 1
  11    4    5 1
  12    4   30 1
  13    4   38 1
  14    4   39 1
  15    5   40 1
  16    6   29 1
  17    6   30 1
  18    6   10 1
  19    7    8 1
  20    7   19 1
  21    7   41 1
  22    8    9 ar
  23    8   11 ar
  24    9   10 1
  25    9   14 ar
  26   10   42 1
  27   10   43 1
  28   11   12 ar
  29   11   21 1
  30   12   13 ar
  31   12   23 1
  32   13   14 ar
  33   13   44 1
  34   14   45 1
  35   15   16 1
  36   16   17 ar
  37   16   24 ar
  38   17   18 ar
  39   17   46 1
  40   18   19 ar
  41   18   26 ar
  42   19   20 ar
  43   20   28 ar
  44   21   22 1
  45   22   23 1
  46   22   47 1
  47   22   48 1
  48   24   25 ar
  49   24   31 1
  50   25   26 ar
  51   25   49 1
  52   26   27 ar
  53   27   28 ar
  54   28   50 1
  55   29   51 1
  56   29   52 1
  57   29   53 1
  58   30   54 1
  59   30   55 1
  60   31   56 1

#	End of record

