#	Name: ASD01180090
#	Creating user name:	WinNT
#	Creation time:	15. 06. 2019 19:06

#	Modifying user name:	WinNT
#	Modification time:	15. 06. 2019 19:06

#	Program:	/corina/corina34_cracker 3.40 0067  02.08.2006

@<TRIPOS>MOLECULE
ASD01180090
  57   59    0    0    0
SMALL
NO_CHARGES


@<TRIPOS>ATOM
   1 C1             0.9939     1.6848     1.1936 C.2     
   2 C2             0.8453     0.1924     1.0459 C.3     
   3 C3             2.2244    -0.4404     0.8492 C.3     
   4 O4             2.0902     2.1904     1.1464 O.2     
   5 O5            -0.0923     2.4529     1.3721 O.3     
   6 N6             2.0800    -1.8912     0.7056 N.am    
   7 C7             3.1701    -2.6619     0.5209 C.2     
   8 C8             3.0243    -4.1260     0.3760 C.ar    
   9 C9             4.1512    -4.9270     0.1846 C.ar    
  10 C10            4.0083    -6.2926     0.0505 C.ar    
  11 C11            2.7514    -6.8684     0.1050 C.ar    
  12 C12            1.6303    -6.0800     0.2945 C.ar    
  13 C13            1.7598    -4.7138     0.4358 C.ar    
  14 O14            4.2730    -2.1533     0.4735 O.2     
  15 C15            2.6028    -8.3607    -0.0432 C.3     
  16 C16            2.4353    -8.9962     1.3385 C.3     
  17 C17            2.3962   -10.5193     1.1979 C.3     
  18 C18            3.7516   -11.0199     0.6949 C.3     
  19 N19            1.4245    -8.6552    -0.8623 N.pl3   
  20 N20            0.4151    -8.7563    -2.9629 N.ar    
  21 C21            1.5058    -8.5844    -2.2449 C.ar    
  22 C22            2.7476    -8.3310    -2.8458 C.ar    
  23 C23            2.8427    -8.2583    -4.2025 C.ar    
  24 C24            1.6712    -8.4432    -4.9655 C.ar    
  25 C25            1.6980    -8.3823    -6.3669 C.ar    
  26 C26            0.5467    -8.5669    -7.0716 C.ar    
  27 C27           -0.6579    -8.8152    -6.4187 C.ar    
  28 C28           -0.7194    -8.8809    -5.0600 C.ar    
  29 C29            0.4473    -8.6961    -4.2993 C.ar    
  30 C30            2.0928   -11.1494     2.5587 C.3     
  31 H31            0.3822    -0.2173     1.9436 H       
  32 H32            0.2185    -0.0265     0.1815 H       
  33 H33            2.6874    -0.0308    -0.0484 H       
  34 H34            2.8512    -0.2215     1.7137 H       
  35 H35            0.0530     3.4047     1.4618 H       
  36 H36            1.1998    -2.2971     0.7435 H       
  37 H37            5.1328    -4.4787     0.1411 H       
  38 H38            4.8795    -6.9135    -0.0976 H       
  39 H39            0.6520    -6.5357     0.3362 H       
  40 H40            0.8843    -4.1001     0.5881 H       
  41 H41            3.4914    -8.7682    -0.5252 H       
  42 H42            3.2741    -8.7113     1.9736 H       
  43 H43            1.5049    -8.6488     1.7878 H       
  44 H44            1.6189   -10.7987     0.4867 H       
  45 H45            3.7030   -12.0963     0.5301 H       
  46 H46            3.9990   -10.5198    -0.2415 H       
  47 H47            4.5186   -10.8004     1.4377 H       
  48 H48            0.5873    -8.8996    -0.4376 H       
  49 H49            3.6267    -8.1934    -2.2337 H       
  50 H50            3.7908    -8.0636    -4.6817 H       
  51 H51            2.6262    -8.1896    -6.8843 H       
  52 H52            0.5685    -8.5198    -8.1503 H       
  53 H53           -1.5575    -8.9577    -6.9990 H       
  54 H54           -1.6617    -9.0740    -4.5688 H       
  55 H55            1.1272   -10.7927     2.9171 H       
  56 H56            2.0650   -12.2344     2.4586 H       
  57 H57            2.8701   -10.8700     3.2699 H       
@<TRIPOS>BOND
   1    1    2 1
   2    1    4 2
   3    1    5 1
   4    2    3 1
   5    2   31 1
   6    2   32 1
   7    3    6 1
   8    3   33 1
   9    3   34 1
  10    5   35 1
  11    6    7 am
  12    6   36 1
  13    7    8 1
  14    7   14 2
  15    8    9 ar
  16    8   13 ar
  17    9   10 ar
  18    9   37 1
  19   10   11 ar
  20   10   38 1
  21   11   12 ar
  22   11   15 1
  23   12   13 ar
  24   12   39 1
  25   13   40 1
  26   15   16 1
  27   15   19 1
  28   15   41 1
  29   16   17 1
  30   16   42 1
  31   16   43 1
  32   17   18 1
  33   17   30 1
  34   17   44 1
  35   18   45 1
  36   18   46 1
  37   18   47 1
  38   19   21 1
  39   19   48 1
  40   20   21 ar
  41   20   29 ar
  42   21   22 ar
  43   22   23 ar
  44   22   49 1
  45   23   24 ar
  46   23   50 1
  47   24   25 ar
  48   24   29 ar
  49   25   26 ar
  50   25   51 1
  51   26   27 ar
  52   26   52 1
  53   27   28 ar
  54   27   53 1
  55   28   29 ar
  56   28   54 1
  57   30   55 1
  58   30   56 1
  59   30   57 1

#	End of record

