#	Name: ASD04590426
#	Creating user name:	WinNT
#	Creation time:	15. 06. 2019 20:50

#	Modifying user name:	WinNT
#	Modification time:	15. 06. 2019 20:50

#	Program:	/corina/corina34_cracker 3.40 0067  02.08.2006

@<TRIPOS>MOLECULE
ASD04590426
  34   37    0    0    0
SMALL
NO_CHARGES


@<TRIPOS>ATOM
   1 N1            -0.0158     1.3164     0.0093 N.ar    
   2 C2             0.0021    -0.0041     0.0020 C.ar    
   3 C3             2.3006    -0.0690    -0.0198 C.ar    
   4 C4             2.3156     1.3416    -0.0128 C.ar    
   5 C5             1.1072     2.0191     0.0023 C.ar    
   6 N6             3.5800    -0.4790    -0.0351 N.2     
   7 C7             4.3819     0.5621    -0.0380 C.2     
   8 N8             3.6445     1.7135    -0.0246 N.pl3   
   9 C9             5.8573     0.4982    -0.0528 C.2     
  10 C10            6.6384    -0.6808    -0.0664 C.2     
  11 C11            7.9428    -0.3122    -0.0773 C.2     
  12 N12            7.9921     1.0459    -0.0708 N.pl3   
  13 N13            6.6782     1.5306    -0.0612 N.2     
  14 N14            6.1503    -1.9971    -0.0684 N.am    
  15 C15            7.0103    -3.0348    -0.0821 C.2     
  16 O16            8.2091    -2.8308    -0.0927 O.2     
  17 C17            6.4973    -4.4180    -0.0842 C.ar    
  18 N18            1.1212    -0.6945    -0.0119 N.ar    
  19 C19            5.7843    -6.3798     1.1129 C.ar    
  20 C20            5.5340    -7.0185    -0.0881 C.ar    
  21 C21            5.7663    -6.3696    -1.2872 C.ar    
  22 C22            6.2464    -5.0735    -1.2945 C.ar    
  23 C23            6.2645    -5.0838     1.1241 C.ar    
  24 F24            6.5088    -4.4619     2.2983 F       
  25 F25            6.4723    -4.4412    -2.4668 F       
  26 H26           -0.9374    -0.5368     0.0081 H       
  27 H27            1.0813     3.0987     0.0080 H       
  28 H28            3.9899     2.6199    -0.0239 H       
  29 H29            8.7920    -0.9793    -0.0890 H       
  30 H30            8.7978     1.5860    -0.0759 H       
  31 H31            5.1941    -2.1598    -0.0599 H       
  32 H32            5.5998    -6.8937     2.0447 H       
  33 H33            5.1592    -8.0313    -0.0896 H       
  34 H34            5.5682    -6.8756    -2.2205 H       
@<TRIPOS>BOND
   1    1    2 ar
   2    1    5 ar
   3    2   18 ar
   4    2   26 1
   5    3    4 ar
   6    3    6 1
   7    3   18 ar
   8    4    5 ar
   9    4    8 1
  10    5   27 1
  11    6    7 2
  12    7    8 1
  13    7    9 1
  14    8   28 1
  15    9   10 1
  16    9   13 2
  17   10   11 2
  18   10   14 1
  19   11   12 1
  20   11   29 1
  21   12   13 1
  22   12   30 1
  23   14   15 am
  24   14   31 1
  25   15   16 2
  26   15   17 1
  27   17   23 ar
  28   17   22 ar
  29   19   20 ar
  30   19   23 ar
  31   19   32 1
  32   20   21 ar
  33   20   33 1
  34   21   22 ar
  35   21   34 1
  36   22   25 1
  37   23   24 1

#	End of record

