#	Name: ASD04882074
#	Creating user name:	WinNT
#	Creation time:	15. 06. 2019 20:54

#	Modifying user name:	WinNT
#	Modification time:	15. 06. 2019 20:54

#	Program:	/corina/corina34_cracker 3.40 0067  02.08.2006

@<TRIPOS>MOLECULE
ASD04882074
  74   78    0    0    0
SMALL
NO_CHARGES


@<TRIPOS>ATOM
   1 C1             2.1975     1.8442    -0.7954 C.ar    
   2 C2             2.2359     0.4668    -0.7064 C.ar    
   3 C3             1.0557    -0.2515    -0.5605 C.ar    
   4 C4            -0.1593     0.4191    -0.5046 C.ar    
   5 C5            -0.1906     1.7971    -0.5943 C.ar    
   6 C6             0.9858     2.5089    -0.7395 C.ar    
   7 C7            -1.4422    -0.3559    -0.3469 C.3     
   8 N8             1.0909    -1.6449    -0.4706 N.3     
   9 C9             0.6795    -2.0970     0.8658 C.3     
  10 C10            2.4241    -2.1610    -0.8108 C.3     
  11 C11            2.3995    -3.6910    -0.7779 C.3     
  12 N12            1.9882    -4.1431     0.5585 N.3     
  13 C13            0.6550    -3.6269     0.8987 C.3     
  14 C14            2.0233    -5.5323     0.6481 C.ar    
  15 C15            1.2358    -6.3025    -0.1995 C.ar    
  16 C16            2.8548    -6.1505     1.5865 C.ar    
  17 C17            2.8895    -7.5288     1.6752 C.ar    
  18 C18            2.0921    -8.3012     0.8254 C.ar    
  19 C19            1.2671    -7.6771    -0.1140 C.ar    
  20 N20            3.6528    -5.3728     2.4362 N.am    
  21 C21            3.9105    -5.7933     3.6905 C.2     
  22 C22            4.6532    -4.9264     4.6194 C.2     
  23 O23            3.5291    -6.8896     4.0549 O.2     
  24 C24            5.1114    -3.6896     4.2869 C.2     
  25 S25            5.9240    -2.9711     5.6017 S.3     
  26 C26            5.6455    -4.3642     6.6322 C.2     
  27 C27            4.9651    -5.2989     5.9795 C.2     
  28 C28            2.1262    -9.7733     0.9161 C.2     
  29 O29            2.8481   -10.3157     1.7304 O.2     
  30 N30            1.3571   -10.5170     0.0963 N.am    
  31 C31            1.3909   -11.9788     0.1864 C.3     
  32 C32            0.4330   -12.5757    -0.8465 C.3     
  33 C33            0.4684   -14.1024    -0.7524 C.3     
  34 N34           -0.4489   -14.6740    -1.7414 N.am    
  35 C35           -0.0707   -15.0265    -3.1150 C.3     
  36 C36           -1.4019   -15.1636    -3.8867 C.3     
  37 C37           -2.3902   -15.5148    -2.7506 C.3     
  38 C38           -1.7435   -14.9483    -1.5057 C.2     
  39 O39           -2.3122   -14.7619    -0.4509 O.2     
  40 H40            3.1149     2.4035    -0.9043 H       
  41 H41            3.1823    -0.0516    -0.7505 H       
  42 H42           -1.1350     2.3192    -0.5509 H       
  43 H43            0.9586     3.5863    -0.8089 H       
  44 H44           -1.6323    -0.5323     0.7118 H       
  45 H45           -2.2665     0.2153    -0.7739 H       
  46 H46           -1.3555    -1.3112    -0.8646 H       
  47 H47            1.3875    -1.7286     1.6082 H       
  48 H48           -0.3155    -1.7124     1.0895 H       
  49 H49            2.7009    -1.8232    -1.8095 H       
  50 H50            3.1519    -1.7934    -0.0875 H       
  51 H51            1.6915    -4.0594    -1.5204 H       
  52 H52            3.3946    -4.0756    -1.0017 H       
  53 H53            0.3782    -3.9648     1.8974 H       
  54 H54           -0.0728    -3.9946     0.1753 H       
  55 H55            0.5977    -5.8222    -0.9265 H       
  56 H56            3.5314    -8.0086     2.3993 H       
  57 H57            0.6504    -8.2727    -0.7708 H       
  58 H58            4.0198    -4.5318     2.1217 H       
  59 H59            4.9787    -3.2258     3.3206 H       
  60 H60            5.9776    -4.4476     7.6565 H       
  61 H61            4.6803    -6.2438     6.4183 H       
  62 H62            0.7812   -10.0843    -0.5533 H       
  63 H63            2.4033   -12.3316    -0.0103 H       
  64 H64            1.0862   -12.2884     1.1861 H       
  65 H65           -0.5794   -12.2229    -0.6497 H       
  66 H66            0.7378   -12.2662    -1.8462 H       
  67 H67            1.4807   -14.4552    -0.9492 H       
  68 H68            0.1636   -14.4120     0.2473 H       
  69 H69            0.5395   -14.2365    -3.5528 H       
  70 H70            0.4709   -15.9724    -3.1262 H       
  71 H71           -1.6748   -14.2224    -4.3640 H       
  72 H72           -1.3472   -15.9691    -4.6190 H       
  73 H73           -3.3580   -15.0457    -2.9282 H       
  74 H74           -2.4998   -16.5955    -2.6608 H       
@<TRIPOS>BOND
   1    1    2 ar
   2    1    6 ar
   3    1   40 1
   4    2    3 ar
   5    2   41 1
   6    3    4 ar
   7    3    8 1
   8    4    5 ar
   9    4    7 1
  10    5    6 ar
  11    5   42 1
  12    6   43 1
  13    7   44 1
  14    7   45 1
  15    7   46 1
  16    8    9 1
  17    8   10 1
  18    9   13 1
  19    9   47 1
  20    9   48 1
  21   10   11 1
  22   10   49 1
  23   10   50 1
  24   11   12 1
  25   11   51 1
  26   11   52 1
  27   12   13 1
  28   12   14 1
  29   13   53 1
  30   13   54 1
  31   14   15 ar
  32   14   16 ar
  33   15   19 ar
  34   15   55 1
  35   16   17 ar
  36   16   20 1
  37   17   18 ar
  38   17   56 1
  39   18   19 ar
  40   18   28 1
  41   19   57 1
  42   20   21 am
  43   20   58 1
  44   21   22 1
  45   21   23 2
  46   22   24 2
  47   22   27 1
  48   24   25 1
  49   24   59 1
  50   25   26 1
  51   26   27 2
  52   26   60 1
  53   27   61 1
  54   28   29 2
  55   28   30 am
  56   30   31 1
  57   30   62 1
  58   31   32 1
  59   31   63 1
  60   31   64 1
  61   32   33 1
  62   32   65 1
  63   32   66 1
  64   33   34 1
  65   33   67 1
  66   33   68 1
  67   34   35 1
  68   34   38 am
  69   35   36 1
  70   35   69 1
  71   35   70 1
  72   36   37 1
  73   36   71 1
  74   36   72 1
  75   37   38 1
  76   37   73 1
  77   37   74 1
  78   38   39 2

#	End of record

