#	Name: ASD07931925
#	Creating user name:	WinNT
#	Creation time:	15. 06. 2019 21:13

#	Modifying user name:	WinNT
#	Modification time:	15. 06. 2019 21:13

#	Program:	/corina/corina34_cracker 3.40 0067  02.08.2006

@<TRIPOS>MOLECULE
ASD07931925
  49   51    0    0    0
SMALL
NO_CHARGES


@<TRIPOS>ATOM
   1 C1            -0.0677     1.4235     0.0669 C.2     
   2 N2             0.0306     0.0795     0.0464 N.am    
   3 O3             0.9438     2.1107     0.0641 O.co2   
   4 O4            -1.1684     1.9559     0.0833 O.co2   
   5 S5             1.3604    -2.2788    -0.0599 S.3     
   6 C6             1.2671    -0.5210    -0.1011 C.2     
   7 N7             2.2909     0.2219    -0.2616 N.2     
   8 C8             3.6837    -0.1195    -0.4241 C.3     
   9 C9             3.9924    -1.6168    -0.2791 C.3     
  10 C10            2.9378    -2.4963    -0.9239 C.3     
  11 O11            4.3043    -0.5372     1.8314 O.3     
  12 C12            4.4601     0.4503     0.7985 C.3     
  13 C13            4.0495    -1.8212     1.2431 C.3     
  14 C14            5.1796    -2.7900     1.5969 C.3     
  15 F15            6.3991    -2.2650     1.1560 F       
  16 F16            5.2231    -2.9693     2.9837 F       
  17 F17            4.9498    -4.0217     0.9745 F       
  18 C18            4.2254     0.4339    -1.7169 C.ar    
  19 C19            5.5516     0.2289    -2.0557 C.ar    
  20 C20            6.0485     0.7387    -3.2455 C.ar    
  21 C21            5.2171     1.4515    -4.0919 C.ar    
  22 C22            3.8932     1.6545    -3.7508 C.ar    
  23 C23            3.3964     1.1412    -2.5670 C.ar    
  24 N24            3.0049     2.4168    -4.6565 N.pl3   
  25 O25            3.4407     2.8650    -5.7018 O.2     
  26 O26            1.8382     2.5961    -4.3565 O.2     
  27 F27            7.3428     0.5402    -3.5781 F       
  28 F28            6.3613    -0.4669    -1.2277 F       
  29 C29           -1.1728    -0.7451     0.1804 C.3     
  30 C30           -2.4024     0.1597     0.2815 C.3     
  31 C31           -1.3074    -1.6536    -1.0433 C.3     
  32 C32           -1.0655    -1.6026     1.4430 C.3     
  33 H33            4.9683    -1.8347    -0.7131 H       
  34 H34            3.2461    -3.5398    -0.8604 H       
  35 H35            2.8208    -2.2147    -1.9704 H       
  36 H36            5.5142     0.5774     0.5519 H       
  37 H37            4.0268     1.3995     1.1135 H       
  38 H38            3.0968    -2.2112     1.6014 H       
  39 H39            5.6030     1.8494    -5.0188 H       
  40 H40            2.3605     1.2971    -2.3042 H       
  41 H41           -2.4789     0.7707    -0.6179 H       
  42 H42           -3.2978    -0.4538     0.3812 H       
  43 H43           -2.3066     0.8070     1.1533 H       
  44 H44           -0.4832    -2.3668    -1.0587 H       
  45 H45           -2.2535    -2.1927    -0.9932 H       
  46 H46           -1.2814    -1.0486    -1.9496 H       
  47 H47           -1.0500    -0.9566     2.3207 H       
  48 H48           -1.9227    -2.2734     1.5005 H       
  49 H49           -0.1472    -2.1888     1.4070 H       
@<TRIPOS>BOND
   1    1    2 am
   2    1    3 ar
   3    1    4 ar
   4    2    6 1
   5    2   29 1
   6    5    6 1
   7    5   10 1
   8    6    7 2
   9    7    8 1
  10    8   12 1
  11    8   18 1
  12    8    9 1
  13    9   10 1
  14    9   13 1
  15    9   33 1
  16   10   34 1
  17   10   35 1
  18   11   12 1
  19   11   13 1
  20   12   36 1
  21   12   37 1
  22   13   14 1
  23   13   38 1
  24   14   15 1
  25   14   16 1
  26   14   17 1
  27   18   19 ar
  28   18   23 ar
  29   19   20 ar
  30   19   28 1
  31   20   21 ar
  32   20   27 1
  33   21   22 ar
  34   21   39 1
  35   22   23 ar
  36   22   24 1
  37   23   40 1
  38   24   25 2
  39   24   26 2
  40   29   30 1
  41   29   32 1
  42   29   31 1
  43   30   41 1
  44   30   42 1
  45   30   43 1
  46   31   44 1
  47   31   45 1
  48   31   46 1
  49   32   47 1
  50   32   48 1
  51   32   49 1

#	End of record

