#	Name: ASD03082424
#	Creating user name:	WinNT
#	Creation time:	15. 06. 2019 20:27

#	Modifying user name:	WinNT
#	Modification time:	15. 06. 2019 20:27

#	Program:	/corina/corina34_cracker 3.40 0067  02.08.2006

@<TRIPOS>MOLECULE
ASD03082424
  40   43    0    0    0
SMALL
NO_CHARGES


@<TRIPOS>ATOM
   1 C1             1.0965     3.4364    -0.4854 C.ar    
   2 C2             0.0416     4.0461    -1.1521 C.ar    
   3 C3            -0.0094     5.4232    -1.2541 C.ar    
   4 C4             0.9906     6.1997    -0.6916 C.ar    
   5 C5             2.0496     5.5914    -0.0220 C.ar    
   6 N6             1.1475     2.0418    -0.3835 N.pl3   
   7 C7             2.3829     1.3918    -0.2952 C.2     
   8 C8             2.5770     0.0168    -0.0776 C.2     
   9 N9             3.5610     1.9595    -0.4068 N.2     
  10 N10            4.5401     0.9688    -0.2583 N.pl3   
  11 C11            3.9082    -0.2171    -0.0570 C.2     
  12 C12            5.9233     1.1649    -0.3117 C.ar    
  13 C13            6.7449     0.2772    -1.0035 C.ar    
  14 C14            6.5155     2.2567     0.3208 C.ar    
  15 C15            7.8839     2.4147     0.2445 C.ar    
  16 N16            8.6290     1.5487    -0.4161 N.ar    
  17 C17            8.1055     0.5062    -1.0324 C.ar    
  18 C18            8.5360     3.5913     0.9238 C.3     
  19 H19            8.7504    -0.1794    -1.5619 H       
  20 C20            2.1033     4.2109     0.0751 C.ar    
  21 O21            1.1703     7.5535    -0.6528 O.3     
  22 C22            2.1298     7.7837     0.3958 C.3     
  23 O23            2.8922     6.5630     0.4359 O.3     
  24 F24            2.9545     8.8682     0.0780 F       
  25 F25            1.4815     7.9987     1.6167 F       
  26 C26            4.5724    -1.5535     0.1522 C.3     
  27 C27            4.6219    -2.2823    -1.1258 C.1     
  28 N28            4.6600    -2.8447    -2.1121 N.1     
  29 H29           -0.7393     3.4433    -1.5916 H       
  30 H30           -0.8303     5.8951    -1.7736 H       
  31 H31            0.3262     1.5258    -0.3742 H       
  32 H32            1.7999    -0.7222     0.0509 H       
  33 H33            6.3228    -0.5783    -1.5098 H       
  34 H34            5.9115     2.9693     0.8628 H       
  35 H35            8.8052     3.3184     1.9441 H       
  36 H36            9.4337     3.8760     0.3749 H       
  37 H37            7.8408     4.4305     0.9436 H       
  38 H38            2.9235     3.7374     0.5943 H       
  39 H39            5.5860    -1.4014     0.5232 H       
  40 H40            4.0026    -2.1327     0.8789 H       
@<TRIPOS>BOND
   1    1    2 ar
   2    1    6 1
   3    1   20 ar
   4    2    3 ar
   5    2   29 1
   6    3    4 ar
   7    3   30 1
   8    4    5 ar
   9    4   21 1
  10    5   20 ar
  11    5   23 1
  12    6    7 1
  13    6   31 1
  14    7    8 1
  15    7    9 2
  16    8   11 2
  17    8   32 1
  18    9   10 1
  19   10   11 1
  20   10   12 1
  21   11   26 1
  22   12   13 ar
  23   12   14 ar
  24   13   17 ar
  25   13   33 1
  26   14   15 ar
  27   14   34 1
  28   15   16 ar
  29   15   18 1
  30   16   17 ar
  31   17   19 1
  32   18   35 1
  33   18   36 1
  34   18   37 1
  35   20   38 1
  36   21   22 1
  37   22   23 1
  38   22   24 1
  39   22   25 1
  40   26   27 1
  41   26   39 1
  42   26   40 1
  43   27   28 3

#	End of record

