#	Name: ASD06590005
#	Creating user name:	WinNT
#	Creation time:	15. 06. 2019 21:06

#	Modifying user name:	WinNT
#	Modification time:	15. 06. 2019 21:06

#	Program:	/corina/corina34_cracker 3.40 0067  02.08.2006

@<TRIPOS>MOLECULE
ASD06590005
 250  252    0    0    0
SMALL
NO_CHARGES


@<TRIPOS>ATOM
   1 C1            -0.0144     1.2086     0.0087 C.2     
   2 O2             0.0021    -0.0041     0.0020 O.2     
   3 N3             2.4066     1.0431    -0.0153 N.am    
   4 C4             1.2803     1.9798     0.0005 C.3     
   5 C5             1.3375     2.8671    -1.2446 C.3     
   6 C6             2.5919     3.7414    -1.1906 C.3     
   7 C7             2.7152     4.5374    -2.4915 C.3     
   8 C8             2.4894     4.7081    -0.0091 C.3     
   9 C9            -3.5426     1.9694    -0.5709 C.2     
  10 O10           -3.2948     3.0926    -0.9556 O.2     
  11 N11           -1.1906     1.8666     0.0178 N.am    
  12 C12           -2.4492     1.1169     0.0197 C.3     
  13 C13           -2.8163     0.7401     1.4565 C.3     
  14 C14           -7.1934     1.8552    -0.7166 C.2     
  15 O15           -7.2513     0.9284     0.0635 O.2     
  16 N16           -4.7957     1.4837    -0.6717 N.am    
  17 C17           -5.8586     2.3124    -1.2459 C.3     
  18 C18           -5.8417     2.1796    -2.7700 C.3     
  19 C19           -4.5556     2.7503    -3.3098 C.ar    
  20 C20           -3.4477     1.9364    -3.4575 C.ar    
  21 C21           -2.2675     2.4572    -3.9516 C.ar    
  22 C22           -2.1946     3.7981    -4.3001 C.ar    
  23 O23           -1.0348     4.3127    -4.7869 O.3     
  24 C24           -3.3077     4.6126    -4.1514 C.ar    
  25 C25           -4.4872     4.0857    -3.6617 C.ar    
  26 C26          -10.7041     2.4068    -1.5736 C.2     
  27 O27          -10.4202     2.9881    -2.5995 O.2     
  28 N28           -8.3230     2.4763    -1.1101 N.am    
  29 C29           -9.6207     2.0318    -0.5955 C.3     
  30 C30           -9.8934     2.7057     0.7507 C.3     
  31 C31           -8.8808     2.2347     1.7626 C.ar    
  32 C32           -7.6917     2.9215     1.9216 C.ar    
  33 C33           -6.7628     2.4894     2.8497 C.ar    
  34 C34           -7.0232     1.3709     3.6191 C.ar    
  35 C35           -8.2127     0.6847     3.4607 C.ar    
  36 C36           -9.1435     1.1193     2.5357 C.ar    
  37 C37          -14.3550     2.5850    -1.5307 C.2     
  38 O38          -14.4062     2.3884    -0.3350 O.2     
  39 N39          -11.9884     2.0962    -1.3083 N.am    
  40 C40          -13.0416     2.4607    -2.2592 C.3     
  41 C41          -13.1552     1.3780    -3.3342 C.3     
  42 C42          -11.8649     1.3373    -4.1554 C.3     
  43 C43          -11.9784     0.2546    -5.2305 C.3     
  44 N44          -10.7429     0.2157    -6.0168 N.pl3   
  45 C45          -10.6119    -0.6850    -7.0471 C.2     
  46 N46           -9.5127    -0.7196    -7.7467 N.2     
  47 N47          -11.6404    -1.5492    -7.3396 N.pl3   
  48 C48          -17.8831     2.7975    -2.4639 C.2     
  49 O49          -17.6476     2.5513    -3.6279 O.2     
  50 N50          -15.4727     2.9146    -2.2080 N.am    
  51 C51          -16.7494     3.0354    -1.4998 C.3     
  52 C52          -16.8719     4.4398    -0.9051 C.3     
  53 C53          -15.7956     4.6363     0.1644 C.3     
  54 C54          -15.9181     6.0407     0.7591 C.3     
  55 N55          -14.8876     6.2289     1.7832 N.pl3   
  56 C56          -14.8012     7.4222     2.4604 C.2     
  57 N57          -13.8843     7.5897     3.3715 N.2     
  58 N58          -15.6819     8.4390     2.1764 N.pl3   
  59 C59          -21.5012     3.3190    -2.4668 C.2     
  60 O60          -21.4682     3.9438    -1.4278 O.2     
  61 N61          -19.1585     2.8584    -2.0326 N.am    
  62 C62          -20.2605     2.6272    -2.9698 C.3     
  63 C63          -20.5255     1.1247    -3.0847 C.3     
  64 C64          -19.3101     0.4390    -3.7120 C.3     
  65 C65          -19.5233    -1.0761    -3.7129 C.3     
  66 C66          -19.1333     0.9300    -5.1502 C.3     
  67 C67          -25.0733     3.2269    -3.2380 C.2     
  68 O68          -24.9474     2.2682    -3.9701 O.2     
  69 N69          -22.6475     3.2436    -3.1716 N.am    
  70 C70          -23.8537     3.9162    -2.6826 C.3     
  71 C71          -23.8425     5.3772    -3.1367 C.3     
  72 C72          -22.6915     6.0976    -2.4830 C.2     
  73 C73          -21.7245     6.7857    -3.1195 C.2     
  74 N74          -20.8871     7.2766    -2.1544 N.pl3   
  75 C75          -21.3718     6.8712    -0.9610 C.2     
  76 N76          -22.4539     6.1707    -1.1650 N.2     
  77 C77          -28.6417     3.9764    -3.4988 C.2     
  78 O78          -28.4875     5.1158    -3.1130 O.2     
  79 N79          -26.3040     3.6758    -2.9210 N.am    
  80 C80          -27.4896     3.0057    -3.4609 C.3     
  81 C81          -27.8537     1.8167    -2.5694 C.3     
  82 O82          -28.2423     2.2907    -1.2785 O.3     
  83 C83          -32.2631     3.7613    -3.9483 C.2     
  84 O84          -32.2548     2.5501    -3.8876 O.2     
  85 N85          -29.8433     3.5784    -3.9616 N.am    
  86 C86          -30.9632     4.5222    -3.9985 C.3     
  87 C87          -30.8998     5.3386    -5.2910 C.3     
  88 C88          -29.5305     6.0121    -5.4020 C.3     
  89 O89          -31.0973     4.4735    -6.4110 O.3     
  90 C90          -35.0823     3.2561    -5.3139 C.2     
  91 O91          -34.3730     3.5377    -6.2507 O.2     
  92 N92          -33.4348     4.4270    -3.9708 N.am    
  93 C93          -34.6985     3.6873    -3.9219 C.3     
  94 C94          -35.7940     4.5870    -3.3464 C.3     
  95 C95          -35.4653     4.9233    -1.8905 C.3     
  96 C96          -36.5609     5.8230    -1.3150 C.3     
  97 N97          -36.2462     6.1450     0.0791 N.pl3   
  98 C98          -37.0932     6.9462     0.8076 C.2     
  99 N99          -38.1763     7.4192     0.2580 N.2     
 100 N100         -36.7979     7.2484     2.1159 N.pl3   
 101 O101         -36.2120     2.5592    -5.5131 O.3     
 102 C102           3.6058     1.4228     0.4686 C.2     
 103 O103           3.7525     2.5401     0.9171 O.2     
 104 C104          21.6351    -1.6585     4.5475 C.3     
 105 C105          20.4589    -0.6802     4.5640 C.3     
 106 C106          19.2250    -1.3560     3.9625 C.3     
 107 C107          18.0488    -0.3777     3.9790 C.3     
 108 C108          16.8149    -1.0534     3.3775 C.3     
 109 C109          15.6387    -0.0751     3.3940 C.3     
 110 C110          14.4048    -0.7509     2.7924 C.3     
 111 C111          13.2286     0.2274     2.8089 C.3     
 112 C112          11.9947    -0.4484     2.2074 C.3     
 113 C113          10.8184     0.5299     2.2239 C.3     
 114 C114           9.5846    -0.1458     1.6224 C.3     
 115 C115           8.4083     0.8325     1.6389 C.3     
 116 C116           7.1745     0.1567     1.0374 C.3     
 117 C117           5.9982     1.1350     1.0539 C.3     
 118 C118           4.7644     0.4592     0.4523 C.3     
 119 H119           2.2893     0.1495    -0.3740 H       
 120 H120           1.3381     2.6024     0.8933 H       
 121 H121           1.3693     2.2407    -2.1361 H       
 122 H122           0.4527     3.5029    -1.2787 H       
 123 H123           3.4708     3.1086    -1.0672 H       
 124 H124           1.8364     5.1702    -2.6149 H       
 125 H125           3.6089     5.1602    -2.4530 H       
 126 H126           2.7883     3.8487    -3.3332 H       
 127 H127           3.3831     5.3309     0.0294 H       
 128 H128           1.6105     5.3408    -0.1326 H       
 129 H129           2.4016     4.1410     0.9177 H       
 130 H130          -1.2037     2.8365     0.0232 H       
 131 H131          -2.3335     0.2109    -0.5752 H       
 132 H132          -2.9321     1.6460     2.0514 H       
 133 H133          -3.7527     0.1823     1.4579 H       
 134 H134          -2.0255     0.1235     1.8837 H       
 135 H135          -4.9939     0.5854    -0.3641 H       
 136 H136          -5.6959     3.3544    -0.9701 H       
 137 H137          -5.9154     1.1272    -3.0439 H       
 138 H138          -6.6863     2.7247    -3.1916 H       
 139 H139          -3.5050     0.8926    -3.1861 H       
 140 H140          -1.4022     1.8212    -4.0662 H       
 141 H141          -0.9553     4.2621    -5.7493 H       
 142 H142          -3.2534     5.6568    -4.4216 H       
 143 H143          -5.3553     4.7183    -3.5498 H       
 144 H144          -8.2768     3.2176    -1.7340 H       
 145 H145          -9.6082     0.9498    -0.4643 H       
 146 H146          -9.8181     3.7872     0.6376 H       
 147 H147         -10.8955     2.4450     1.0911 H       
 148 H148          -7.4882     3.7953     1.3205 H       
 149 H149          -5.8334     3.0256     2.9734 H       
 150 H150          -6.2972     1.0330     4.3437 H       
 151 H151          -8.4160    -0.1894     4.0616 H       
 152 H152         -10.0744     0.5853     2.4145 H       
 153 H153         -12.2155     1.6313    -0.4878 H       
 154 H154         -12.7944     3.4133    -2.7276 H       
 155 H155         -13.3143     0.4098    -2.8595 H       
 156 H156         -13.9962     1.6038    -3.9899 H       
 157 H157         -11.7057     2.3055    -4.6302 H       
 158 H158         -11.0239     1.1116    -3.4998 H       
 159 H159         -12.1376    -0.7135    -4.7557 H       
 160 H160         -12.8194     0.4804    -5.8861 H       
 161 H161         -10.0173     0.8255    -5.8104 H       
 162 H162          -9.4202    -1.3552    -8.4737 H       
 163 H163         -12.4584    -1.5235    -6.8190 H       
 164 H164         -11.5479    -2.1847    -8.0666 H       
 165 H165         -15.4317     3.0718    -3.1643 H       
 166 H166         -16.7922     2.2968    -0.6993 H       
 167 H167         -16.7403     5.1809    -1.6935 H       
 168 H168         -17.8574     4.5591    -0.4551 H       
 169 H169         -15.9272     3.8952     0.9528 H       
 170 H170         -14.8101     4.5170    -0.2856 H       
 171 H171         -15.7865     6.7818    -0.0292 H       
 172 H172         -16.9036     6.1600     1.2092 H       
 173 H173         -14.2662     5.5115     1.9836 H       
 174 H174         -13.8234     8.4317     3.8493 H       
 175 H175         -16.3642     8.3144     1.4983 H       
 176 H176         -15.6210     9.2810     2.6542 H       
 177 H177         -19.3468     3.0553    -1.1016 H       
 178 H178         -19.9942     3.0251    -3.9490 H       
 179 H179         -20.7045     0.7104    -2.0925 H       
 180 H180         -21.4011     0.9571    -3.7119 H       
 181 H181         -18.4182     0.6800    -3.1335 H       
 182 H182         -20.4152    -1.3172    -4.2913 H       
 183 H183         -18.6574    -1.5646    -4.1597 H       
 184 H184         -19.6492    -1.4259    -2.6882 H       
 185 H185         -18.9814     2.0093    -5.1496 H       
 186 H186         -18.2674     0.4414    -5.5971 H       
 187 H187         -20.0252     0.6889    -5.7286 H       
 188 H188         -22.6739     2.7439    -4.0026 H       
 189 H189         -23.8769     3.8743    -1.5937 H       
 190 H190         -23.7298     5.4201    -4.2201 H       
 191 H191         -24.7797     5.8540    -2.8498 H       
 192 H192         -21.6281     6.9234    -4.1864 H       
 193 H193         -20.0937     7.8152    -2.3005 H       
 194 H194         -20.9382     7.0933     0.0029 H       
 195 H195         -26.4046     4.4425    -2.3355 H       
 196 H196         -27.2791     2.6520    -4.4702 H       
 197 H197         -28.6803     1.2659    -3.0181 H       
 198 H198         -26.9902     1.1591    -2.4702 H       
 199 H199         -28.4873     1.5895    -0.6593 H       
 200 H200         -29.9666     2.6672    -4.2702 H       
 201 H201         -30.9015     5.1930    -3.1416 H       
 202 H202         -31.6794     6.1002    -5.2782 H       
 203 H203         -29.4853     6.5938    -6.3228 H       
 204 H204         -29.3798     6.6720    -4.5477 H       
 205 H205         -28.7509     5.2505    -5.4148 H       
 206 H206         -31.0697     4.9244    -7.2660 H       
 207 H207         -33.4414     5.3957    -4.0193 H       
 208 H208         -34.5805     2.8080    -3.2887 H       
 209 H209         -35.8512     5.5072    -3.9279 H       
 210 H210         -36.7516     4.0682    -3.3922 H       
 211 H211         -35.4081     4.0032    -1.3090 H       
 212 H212         -34.5078     5.4422    -1.8447 H       
 213 H213         -36.6181     6.7432    -1.8965 H       
 214 H214         -37.5184     5.3042    -1.3608 H       
 215 H215         -35.4402     5.7930     0.4881 H       
 216 H216         -38.7740     7.9845     0.7720 H       
 217 H217         -35.9918     6.8964     2.5249 H       
 218 H218         -37.3955     7.8137     2.6299 H       
 219 H219         -36.4162     2.3048    -6.4235 H       
 220 H220          22.5141    -1.1771     4.9760 H       
 221 H221          21.3818    -2.5412     5.1347 H       
 222 H222          21.8474    -1.9542     3.5201 H       
 223 H223          20.2466    -0.3845     5.5914 H       
 224 H224          20.7122     0.2025     3.9769 H       
 225 H225          19.4373    -1.6516     2.9351 H       
 226 H226          18.9717    -2.2387     4.5497 H       
 227 H227          17.8365    -0.0820     5.0064 H       
 228 H228          18.3021     0.5051     3.3918 H       
 229 H229          17.0272    -1.3491     2.3500 H       
 230 H230          16.5616    -1.9361     3.9646 H       
 231 H231          15.4264     0.2206     4.4214 H       
 232 H232          15.8920     0.8076     2.8068 H       
 233 H233          14.6171    -1.0466     1.7650 H       
 234 H234          14.1515    -1.6336     3.3796 H       
 235 H235          13.0163     0.5231     3.8364 H       
 236 H236          13.4819     1.1101     2.2218 H       
 237 H237          12.2070    -0.7440     1.1800 H       
 238 H238          11.7414    -1.3311     2.7946 H       
 239 H239          10.6062     0.8256     3.2513 H       
 240 H240          11.0718     1.4127     1.6367 H       
 241 H241           9.7969    -0.4415     0.5950 H       
 242 H242           9.3313    -1.0285     2.2095 H       
 243 H243           8.1961     1.1282     2.6663 H       
 244 H244           8.6617     1.7152     1.0517 H       
 245 H245           7.3868    -0.1390     0.0099 H       
 246 H246           6.9211    -0.7260     1.6245 H       
 247 H247           5.7859     1.4307     2.0813 H       
 248 H248           6.2516     2.0177     0.4667 H       
 249 H249           4.5110    -0.4235     1.0395 H       
 250 H250           4.9766     0.1636    -0.5751 H       
@<TRIPOS>BOND
   1    1    2 2
   2    1    4 1
   3    1   11 am
   4    3  102 am
   5    3    4 1
   6    3  119 1
   7    4    5 1
   8    4  120 1
   9    5    6 1
  10    5  121 1
  11    5  122 1
  12    6    7 1
  13    6    8 1
  14    6  123 1
  15    7  124 1
  16    7  125 1
  17    7  126 1
  18    8  127 1
  19    8  128 1
  20    8  129 1
  21    9   10 2
  22    9   12 1
  23    9   16 am
  24   11   12 1
  25   11  130 1
  26   12   13 1
  27   12  131 1
  28   13  132 1
  29   13  133 1
  30   13  134 1
  31   14   15 2
  32   14   17 1
  33   14   28 am
  34   16   17 1
  35   16  135 1
  36   17   18 1
  37   17  136 1
  38   18   19 1
  39   18  137 1
  40   18  138 1
  41   19   20 ar
  42   19   25 ar
  43   20   21 ar
  44   20  139 1
  45   21   22 ar
  46   21  140 1
  47   22   23 1
  48   22   24 ar
  49   23  141 1
  50   24   25 ar
  51   24  142 1
  52   25  143 1
  53   26   27 2
  54   26   29 1
  55   26   39 am
  56   28   29 1
  57   28  144 1
  58   29   30 1
  59   29  145 1
  60   30   31 1
  61   30  146 1
  62   30  147 1
  63   31   32 ar
  64   31   36 ar
  65   32   33 ar
  66   32  148 1
  67   33   34 ar
  68   33  149 1
  69   34   35 ar
  70   34  150 1
  71   35   36 ar
  72   35  151 1
  73   36  152 1
  74   37   38 2
  75   37   40 1
  76   37   50 am
  77   39   40 1
  78   39  153 1
  79   40   41 1
  80   40  154 1
  81   41   42 1
  82   41  155 1
  83   41  156 1
  84   42   43 1
  85   42  157 1
  86   42  158 1
  87   43   44 1
  88   43  159 1
  89   43  160 1
  90   44   45 1
  91   44  161 1
  92   45   46 2
  93   45   47 1
  94   46  162 1
  95   47  163 1
  96   47  164 1
  97   48   49 2
  98   48   51 1
  99   48   61 am
 100   50   51 1
 101   50  165 1
 102   51   52 1
 103   51  166 1
 104   52   53 1
 105   52  167 1
 106   52  168 1
 107   53   54 1
 108   53  169 1
 109   53  170 1
 110   54   55 1
 111   54  171 1
 112   54  172 1
 113   55   56 1
 114   55  173 1
 115   56   57 2
 116   56   58 1
 117   57  174 1
 118   58  175 1
 119   58  176 1
 120   59   60 2
 121   59   62 1
 122   59   69 am
 123   61   62 1
 124   61  177 1
 125   62   63 1
 126   62  178 1
 127   63   64 1
 128   63  179 1
 129   63  180 1
 130   64   65 1
 131   64   66 1
 132   64  181 1
 133   65  182 1
 134   65  183 1
 135   65  184 1
 136   66  185 1
 137   66  186 1
 138   66  187 1
 139   67   68 2
 140   67   70 1
 141   67   79 am
 142   69   70 1
 143   69  188 1
 144   70   71 1
 145   70  189 1
 146   71   72 1
 147   71  190 1
 148   71  191 1
 149   72   73 2
 150   72   76 1
 151   73   74 1
 152   73  192 1
 153   74   75 1
 154   74  193 1
 155   75   76 2
 156   75  194 1
 157   77   78 2
 158   77   80 1
 159   77   85 am
 160   79   80 1
 161   79  195 1
 162   80   81 1
 163   80  196 1
 164   81   82 1
 165   81  197 1
 166   81  198 1
 167   82  199 1
 168   83   84 2
 169   83   86 1
 170   83   92 am
 171   85   86 1
 172   85  200 1
 173   86   87 1
 174   86  201 1
 175   87   88 1
 176   87   89 1
 177   87  202 1
 178   88  203 1
 179   88  204 1
 180   88  205 1
 181   89  206 1
 182   90   91 2
 183   90   93 1
 184   90  101 1
 185   92   93 1
 186   92  207 1
 187   93   94 1
 188   93  208 1
 189   94   95 1
 190   94  209 1
 191   94  210 1
 192   95   96 1
 193   95  211 1
 194   95  212 1
 195   96   97 1
 196   96  213 1
 197   96  214 1
 198   97   98 1
 199   97  215 1
 200   98   99 2
 201   98  100 1
 202   99  216 1
 203  100  217 1
 204  100  218 1
 205  101  219 1
 206  102  103 2
 207  102  118 1
 208  104  105 1
 209  104  220 1
 210  104  221 1
 211  104  222 1
 212  105  106 1
 213  105  223 1
 214  105  224 1
 215  106  107 1
 216  106  225 1
 217  106  226 1
 218  107  108 1
 219  107  227 1
 220  107  228 1
 221  108  109 1
 222  108  229 1
 223  108  230 1
 224  109  110 1
 225  109  231 1
 226  109  232 1
 227  110  111 1
 228  110  233 1
 229  110  234 1
 230  111  112 1
 231  111  235 1
 232  111  236 1
 233  112  113 1
 234  112  237 1
 235  112  238 1
 236  113  114 1
 237  113  239 1
 238  113  240 1
 239  114  115 1
 240  114  241 1
 241  114  242 1
 242  115  116 1
 243  115  243 1
 244  115  244 1
 245  116  117 1
 246  116  245 1
 247  116  246 1
 248  117  118 1
 249  117  247 1
 250  117  248 1
 251  118  249 1
 252  118  250 1

#	End of record

