#	Name: ASD01870014
#	Creating user name:	WinNT
#	Creation time:	15. 06. 2019 19:38

#	Modifying user name:	WinNT
#	Modification time:	15. 06. 2019 19:38

#	Program:	/corina/corina34_cracker 3.40 0067  02.08.2006

@<TRIPOS>MOLECULE
ASD01870014
  41   44    0    0    0
SMALL
NO_CHARGES


@<TRIPOS>ATOM
   1 C1            -0.0166     1.3758     0.0096 C.ar    
   2 C2             0.0021    -0.0041     0.0020 C.ar    
   3 C3             1.2141    -0.6856    -0.0136 C.ar    
   4 C4             2.4024     0.0257    -0.0227 C.ar    
   5 C5             2.3775     1.4094    -0.0135 C.ar    
   6 C6             1.1716     2.0834     0.0021 C.ar    
   7 O7             1.2110    -2.0400    -0.0188 O.3     
   8 C8             2.3139    -2.7242     0.3685 C.ar    
   9 C9             3.5613    -2.1225     0.3762 C.ar    
  10 C10            3.7269    -0.6877    -0.0449 C.3     
  11 C11            2.1855    -4.0512     0.7640 C.ar    
  12 C12            3.2973    -4.7666     1.1601 C.ar    
  13 C13            4.5419    -4.1637     1.1643 C.ar    
  14 C14            4.6726    -2.8449     0.7742 C.ar    
  15 C15            4.2937    -0.6414    -1.4404 C.2     
  16 N16            4.5298     0.5459    -2.0329 N.am    
  17 C17            5.0367     0.5873    -3.2810 C.2     
  18 O18            5.2725     1.7729    -3.8726 O.3     
  19 C19            5.8190     1.7415    -5.2175 C.3     
  20 O20            4.5372    -1.6722    -2.0302 O.2     
  21 O21            5.2807    -0.4455    -3.8719 O.2     
  22 C22            6.0180     3.1726    -5.7208 C.3     
  23 C23            6.6970     3.3556    -7.0796 C.3     
  24 C24            5.1964     3.6158    -6.9330 C.3     
  25 H25           -0.9591     1.9031     0.0169 H       
  26 H26           -0.9264    -0.5557     0.0086 H       
  27 H27            3.3041     1.9643    -0.0188 H       
  28 H28            1.1568     3.1633     0.0081 H       
  29 H29            4.4146    -0.1895     0.6385 H       
  30 H30            1.2139    -4.5227     0.7615 H       
  31 H31            3.1953    -5.7970     1.4670 H       
  32 H32            5.4119    -4.7238     1.4738 H       
  33 H33            5.6457    -2.3764     0.7785 H       
  34 H34            4.3349     1.3707    -1.5610 H       
  35 H35            6.7778     1.2230    -5.2080 H       
  36 H36            5.1287     1.2167    -5.8780 H       
  37 H37            6.2225     3.9172    -4.9515 H       
  38 H38            7.3479     4.2209    -7.2044 H       
  39 H39            7.0019     2.4565    -7.6150 H       
  40 H40            4.5141     2.8878    -7.3720 H       
  41 H41            4.8601     4.6522    -6.9614 H       
@<TRIPOS>BOND
   1    1    2 ar
   2    1    6 ar
   3    1   25 1
   4    2    3 ar
   5    2   26 1
   6    3    4 ar
   7    3    7 1
   8    4    5 ar
   9    4   10 1
  10    5    6 ar
  11    5   27 1
  12    6   28 1
  13    7    8 1
  14    8    9 ar
  15    8   11 ar
  16    9   10 1
  17    9   14 ar
  18   10   15 1
  19   10   29 1
  20   11   12 ar
  21   11   30 1
  22   12   13 ar
  23   12   31 1
  24   13   14 ar
  25   13   32 1
  26   14   33 1
  27   15   16 am
  28   15   20 2
  29   16   17 am
  30   16   34 1
  31   17   18 1
  32   17   21 2
  33   18   19 1
  34   19   22 1
  35   19   35 1
  36   19   36 1
  37   22   23 1
  38   22   24 1
  39   22   37 1
  40   23   24 1
  41   23   38 1
  42   23   39 1
  43   24   40 1
  44   24   41 1

#	End of record

