#	Name: ASD04590455
#	Creating user name:	WinNT
#	Creation time:	15. 06. 2019 20:50

#	Modifying user name:	WinNT
#	Modification time:	15. 06. 2019 20:50

#	Program:	/corina/corina34_cracker 3.40 0067  02.08.2006

@<TRIPOS>MOLECULE
ASD04590455
  51   55    0    0    0
SMALL
NO_CHARGES


@<TRIPOS>ATOM
   1 C1            -0.0309     1.4056    -0.0079 C.ar    
   2 C2            -0.0356     0.0323    -0.2594 C.ar    
   3 C3            -2.3894    -0.0490     0.2212 C.ar    
   4 C4            -2.3762     1.3318     0.4843 C.ar    
   5 C5            -1.1959     2.0513     0.3620 C.ar    
   6 N6            -3.6592    -0.4830     0.4187 N.2     
   7 C7            -4.4177     0.5231     0.7804 C.2     
   8 N8            -3.6708     1.6699     0.8360 N.pl3   
   9 C9            -5.8612     0.4335     1.0827 C.2     
  10 C10           -6.6501    -0.7393     1.0320 C.2     
  11 C11           -7.9165    -0.4006     1.3782 C.2     
  12 N12           -7.9344     0.9329     1.6390 N.pl3   
  13 N13           -6.6391     1.4317     1.4528 N.2     
  14 N14           -6.2024    -2.0234     0.6853 N.am    
  15 C15           -7.0653    -3.0586     0.6774 C.2     
  16 O16           -8.2330    -2.8799     0.9710 O.2     
  17 C17           -6.5983    -4.3979     0.3158 C.2     
  18 C18           -1.2031    -0.6932    -0.1470 C.ar    
  19 C19           -5.1754    -4.8546     0.0456 C.3     
  20 O20            1.1179    -0.5937    -0.6178 O.3     
  21 C21            1.0444    -1.9999    -0.8608 C.3     
  22 N22           -5.3322    -6.2850    -0.2634 N.2     
  23 N23           -6.5280    -6.5721    -0.1898 N.2     
  24 C24           -7.3390    -5.5337     0.1476 C.2     
  25 C25           -8.8074    -5.6191     0.3002 C.ar    
  26 C26           -9.6334    -4.6871    -0.3312 C.ar    
  27 C27          -11.0023    -4.7729    -0.1850 C.ar    
  28 C28          -11.5573    -5.7794     0.5857 C.ar    
  29 C29          -10.7445    -6.7063     1.2142 C.ar    
  30 C30           -9.3743    -6.6356     1.0717 C.ar    
  31 O31            1.1268     2.1106    -0.1220 O.3     
  32 C32            1.0623     3.5121     0.1493 C.3     
  33 H33           -1.1874     3.1137     0.5559 H       
  34 H34           -3.9898     2.5537     1.0769 H       
  35 H35           -8.7610    -1.0714     1.4359 H       
  36 H36           -8.7094     1.4492     1.9105 H       
  37 H37           -5.2718    -2.1658     0.4513 H       
  38 H38           -1.2018    -1.7553    -0.3429 H       
  39 H39           -4.7556    -4.3208    -0.8070 H       
  40 H40           -4.5533    -4.7183     0.9302 H       
  41 H41            2.0305    -2.3729    -1.1374 H       
  42 H42            0.7040    -2.5073     0.0419 H       
  43 H43            0.3425    -2.1922    -1.6722 H       
  44 H44           -9.2015    -3.9007    -0.9324 H       
  45 H45          -11.6424    -4.0526    -0.6728 H       
  46 H46          -12.6297    -5.8415     0.6974 H       
  47 H47          -11.1840    -7.4891     1.8145 H       
  48 H48           -8.7410    -7.3598     1.5624 H       
  49 H49            0.7237     3.6688     1.1734 H       
  50 H50            2.0511     3.9527     0.0221 H       
  51 H51            0.3628     3.9839    -0.5408 H       
@<TRIPOS>BOND
   1    1    2 ar
   2    1   31 1
   3    1    5 ar
   4    2   18 ar
   5    2   20 1
   6    3    4 ar
   7    3    6 1
   8    3   18 ar
   9    4    5 ar
  10    4    8 1
  11    5   33 1
  12    6    7 2
  13    7    8 1
  14    7    9 1
  15    8   34 1
  16    9   10 1
  17    9   13 2
  18   10   11 2
  19   10   14 1
  20   11   12 1
  21   11   35 1
  22   12   13 1
  23   12   36 1
  24   14   15 am
  25   14   37 1
  26   15   16 2
  27   15   17 1
  28   17   19 1
  29   17   24 2
  30   18   38 1
  31   19   22 1
  32   19   39 1
  33   19   40 1
  34   20   21 1
  35   21   41 1
  36   21   42 1
  37   21   43 1
  38   22   23 2
  39   23   24 1
  40   24   25 1
  41   25   26 ar
  42   25   30 ar
  43   26   27 ar
  44   26   44 1
  45   27   28 ar
  46   27   45 1
  47   28   29 ar
  48   28   46 1
  49   29   30 ar
  50   29   47 1
  51   30   48 1
  52   31   32 1
  53   32   49 1
  54   32   50 1
  55   32   51 1

#	End of record

