#	Name: ASD03091526
#	Creating user name:	WinNT
#	Creation time:	15. 06. 2019 20:30

#	Modifying user name:	WinNT
#	Modification time:	15. 06. 2019 20:30

#	Program:	/corina/corina34_cracker 3.40 0067  02.08.2006

@<TRIPOS>MOLECULE
ASD03091526
  46   48    0    0    0
SMALL
NO_CHARGES


@<TRIPOS>ATOM
   1 C1            -0.0167     1.3802     0.0096 C.ar    
   2 C2             0.0021    -0.0041     0.0020 C.ar    
   3 C3             1.2112    -0.6790    -0.0132 C.ar    
   4 C4             2.3973     0.0297    -0.0207 C.ar    
   5 C5             2.3773     1.4122    -0.0131 C.ar    
   6 C6             1.1711     2.0869     0.0021 C.ar    
   7 C7             3.7133    -0.7045    -0.0367 C.3     
   8 C8             4.9821     0.1242    -0.2475 C.3     
   9 C9             4.6717    -0.4623     1.1311 C.3     
  10 C10            5.5088    -1.6255     1.5970 C.2     
  11 O11            5.4079    -2.7030     1.0496 O.2     
  12 N12            6.3697    -1.4684     2.6221 N.am    
  13 C13            7.1835    -2.5992     3.0750 C.3     
  14 C14            8.4484    -2.6924     2.2192 C.3     
  15 C15            7.5673    -2.3958     4.5181 C.ar    
  16 C16            7.5663    -3.4664     5.4019 C.ar    
  17 C17            7.9257    -3.2359     6.7181 C.ar    
  18 C18            8.2734    -1.9488     7.1084 C.ar    
  19 N19            8.2618    -0.9542     6.2368 N.ar    
  20 C20            7.9291    -1.1440     4.9739 C.ar    
  21 O21            8.6277    -1.7097     8.3960 O.3     
  22 O22            9.2566    -1.5341     2.4360 O.3     
  23 C23            8.9743    -0.3653     8.7346 C.3     
  24 F24           -1.1583    -0.6959     0.0098 F       
  25 C25            9.3425    -0.2917    10.2178 C.3     
  26 H26            9.6069     0.7338    10.4760 H       
  27 H27            8.4914    -0.6100    10.8197 H       
  28 H28           10.1916    -0.9463    10.4143 H       
  29 H29            9.8254    -0.0470     8.1327 H       
  30 H30            8.1252     0.2893     8.5381 H       
  31 H31           -0.9591     1.9076     0.0170 H       
  32 H32            1.2270    -1.7589    -0.0187 H       
  33 H33            3.3050     1.9653    -0.0186 H       
  34 H34            1.1567     3.1668     0.0080 H       
  35 H35            3.6882    -1.7051    -0.4683 H       
  36 H36            5.7918    -0.3314    -0.8175 H       
  37 H37            4.8649     1.2004    -0.3746 H       
  38 H38            4.3503     0.2282     1.9110 H       
  39 H39            6.4504    -0.6066     3.0599 H       
  40 H40            6.6104    -3.5213     2.9779 H       
  41 H41            9.0099    -3.5845     2.4967 H       
  42 H42            8.1714    -2.7503     1.1665 H       
  43 H43            7.2909    -4.4565     5.0698 H       
  44 H44            7.9355    -4.0458     7.4326 H       
  45 H45            7.9314    -0.3078     4.2905 H       
  46 H46           10.0770    -1.5255     1.9242 H       
@<TRIPOS>BOND
   1    1    2 ar
   2    1    6 ar
   3    1   31 1
   4    2    3 ar
   5    2   24 1
   6    3    4 ar
   7    3   32 1
   8    4    5 ar
   9    4    7 1
  10    5    6 ar
  11    5   33 1
  12    6   34 1
  13    7    8 1
  14    7    9 1
  15    7   35 1
  16    8    9 1
  17    8   36 1
  18    8   37 1
  19    9   10 1
  20    9   38 1
  21   10   11 2
  22   10   12 am
  23   12   13 1
  24   12   39 1
  25   13   14 1
  26   13   15 1
  27   13   40 1
  28   14   22 1
  29   14   41 1
  30   14   42 1
  31   15   16 ar
  32   15   20 ar
  33   16   17 ar
  34   16   43 1
  35   17   18 ar
  36   17   44 1
  37   18   19 ar
  38   18   21 1
  39   19   20 ar
  40   20   45 1
  41   21   23 1
  42   22   46 1
  43   23   25 1
  44   23   29 1
  45   23   30 1
  46   25   26 1
  47   25   27 1
  48   25   28 1

#	End of record

