#	Name: ASD00069407
#	Creating user name:	WinNT
#	Creation time:	15. 06. 2019 18:29

#	Modifying user name:	WinNT
#	Modification time:	15. 06. 2019 18:29

#	Program:	/corina/corina34_cracker 3.40 0067  02.08.2006

@<TRIPOS>MOLECULE
ASD00069407
  74   76    0    0    0
SMALL
NO_CHARGES


@<TRIPOS>ATOM
   1 C1             0.0262     1.2654     0.9076 C.2     
   2 C2             0.0329    -0.0370     0.5289 C.2     
   3 C3             2.0929     0.6039     0.5948 C.2     
   4 N4             1.2964    -0.4141     0.3456 N.2     
   5 Br5           -1.4925    -1.1310     0.3008 Br      
   6 C6             3.5636     0.5910     0.5044 C.2     
   7 O7             4.1974     1.5974     0.7593 O.2     
   8 N8             4.2064    -0.5359     0.1393 N.am    
   9 C9             5.5928    -0.5184    -0.0585 C.ar    
  10 C10            6.3144    -1.7109    -0.0531 C.ar    
  11 C11            6.2507     0.6856    -0.2660 C.ar    
  12 C12            7.6187     0.7016    -0.4610 C.ar    
  13 C13            8.3372    -0.4803    -0.4503 C.ar    
  14 C14            7.6891    -1.6864    -0.2498 C.ar    
  15 N15            5.6554    -2.9301     0.1506 N.3     
  16 C16            6.0981    -3.5657     1.3988 C.3     
  17 C17            5.2299    -4.7975     1.6766 C.3     
  18 C18            4.9611    -5.0690    -0.8189 C.3     
  19 C19            5.8398    -3.8265    -0.9984 C.3     
  20 F20            8.3940    -2.8389    -0.2395 F       
  21 N21            1.3224     1.6750     0.9509 N.pl3   
  22 Si22           0.2510     7.7264     2.7702 Si      
  23 C23           -0.2182     5.9878     2.2931 C.3     
  24 C24            1.0470     5.1843     1.9856 C.3     
  25 O25            0.6871     3.8506     1.6196 O.3     
  26 C26            1.1703     8.5299     1.3630 C.3     
  27 C27           -1.2896     8.7048     3.1446 C.3     
  28 C28            1.3415     7.6833     4.2800 C.3     
  29 C29            1.8020     3.0118     1.3107 C.3     
  30 N30            5.2601    -5.6674     0.4910 N.am    
  31 O31            5.5761    -7.7582    -0.4951 O.3     
  32 C32            5.8999    -9.1602    -0.3005 C.3     
  33 C33            4.8699    -9.7964     0.6351 C.3     
  34 C34            5.8769    -9.8809    -1.6499 C.3     
  35 C35            7.2940    -9.2806     0.3183 C.3     
  36 C36            5.5535    -6.9781     0.6020 C.2     
  37 O37            5.7976    -7.4559     1.6923 O.2     
  38 H38           -0.8443     1.8653     1.1285 H       
  39 H39            3.7089    -1.3590     0.0135 H       
  40 H40            5.6934     1.6106    -0.2755 H       
  41 H41            8.1284     1.6399    -0.6227 H       
  42 H42            9.4061    -0.4622    -0.6035 H       
  43 H43            7.1404    -3.8695     1.3025 H       
  44 H44            5.9996    -2.8581     2.2221 H       
  45 H45            5.6251    -5.3374     2.5371 H       
  46 H46            4.2047    -4.4855     1.8759 H       
  47 H47            3.9100    -4.7832    -0.8595 H       
  48 H48            5.1785    -5.7885    -1.6083 H       
  49 H49            5.5540    -3.3082    -1.9137 H       
  50 H50            6.8857    -4.1268    -1.0614 H       
  51 H51           -0.7560     5.5177     3.1164 H       
  52 H52           -0.8562     6.0130     1.4097 H       
  53 H53            1.5849     5.6544     1.1623 H       
  54 H54            1.6850     5.1590     2.8690 H       
  55 H55            0.5322     8.5552     0.4796 H       
  56 H56            1.4448     9.5472     1.6421 H       
  57 H57            2.0716     7.9575     1.1439 H       
  58 H58           -1.8274     8.2347     3.9679 H       
  59 H59           -1.0151     9.7221     3.4237 H       
  60 H60           -1.9276     8.7301     2.2612 H       
  61 H61            2.2428     7.1108     4.0610 H       
  62 H62            1.6160     8.7005     4.5592 H       
  63 H63            0.8036     7.2132     5.1034 H       
  64 H64            2.4557     2.9414     2.1801 H       
  65 H65            2.3555     3.4368     0.4734 H       
  66 H66            3.8767    -9.7106     0.1942 H       
  67 H67            5.1130   -10.8489     0.7811 H       
  68 H68            4.8863    -9.2829     1.5964 H       
  69 H69            6.6106    -9.4277    -2.3165 H       
  70 H70            6.1199   -10.9334    -1.5039 H       
  71 H71            4.8837    -9.7952    -2.0908 H       
  72 H72            7.3103    -8.7671     1.2796 H       
  73 H73            7.5370   -10.3331     0.4643 H       
  74 H74            8.0277    -8.8273    -0.3483 H       
@<TRIPOS>BOND
   1    1    2 2
   2    1   21 1
   3    1   38 1
   4    2    5 1
   5    2    4 1
   6    3    4 2
   7    3    6 1
   8    3   21 1
   9    6    7 2
  10    6    8 am
  11    8    9 1
  12    8   39 1
  13    9   10 ar
  14    9   11 ar
  15   10   15 1
  16   10   14 ar
  17   11   12 ar
  18   11   40 1
  19   12   13 ar
  20   12   41 1
  21   13   14 ar
  22   13   42 1
  23   14   20 1
  24   15   16 1
  25   15   19 1
  26   16   17 1
  27   16   43 1
  28   16   44 1
  29   17   30 1
  30   17   45 1
  31   17   46 1
  32   18   19 1
  33   18   30 1
  34   18   47 1
  35   18   48 1
  36   19   49 1
  37   19   50 1
  38   21   29 1
  39   22   23 1
  40   22   26 1
  41   22   27 1
  42   22   28 1
  43   23   24 1
  44   23   51 1
  45   23   52 1
  46   24   25 1
  47   24   53 1
  48   24   54 1
  49   25   29 1
  50   26   55 1
  51   26   56 1
  52   26   57 1
  53   27   58 1
  54   27   59 1
  55   27   60 1
  56   28   61 1
  57   28   62 1
  58   28   63 1
  59   29   64 1
  60   29   65 1
  61   30   36 am
  62   31   32 1
  63   31   36 1
  64   32   33 1
  65   32   34 1
  66   32   35 1
  67   33   66 1
  68   33   67 1
  69   33   68 1
  70   34   69 1
  71   34   70 1
  72   34   71 1
  73   35   72 1
  74   35   73 1
  75   35   74 1
  76   36   37 2

#	End of record

