#	Name: ASD07930250
#	Creating user name:	WinNT
#	Creation time:	15. 06. 2019 21:12

#	Modifying user name:	WinNT
#	Modification time:	15. 06. 2019 21:12

#	Program:	/corina/corina34_cracker 3.40 0067  02.08.2006

@<TRIPOS>MOLECULE
ASD07930250
  59   63    0    0    0
SMALL
NO_CHARGES


@<TRIPOS>ATOM
   1 C1             0.5850     0.7461     0.1612 C.2     
   2 C2             0.8604    -0.5863     0.3036 C.2     
   3 C3             2.2585    -1.0114     0.4084 C.2     
   4 N4             3.2328    -0.0862     0.3641 N.am    
   5 C5             2.9300     1.2487     0.2182 C.2     
   6 C6             1.6388     1.6673     0.1187 C.2     
   7 C7             4.6447    -0.4776     0.4725 C.3     
   8 C8             5.4515     0.3712    -0.5214 C.3     
   9 N9             5.2746     1.7888    -0.1754 N.am    
  10 C10            4.0399     2.2260     0.1697 C.2     
  11 C11            6.4122     2.7114    -0.2033 C.3     
  12 O12            3.8477     3.3970     0.4341 O.2     
  13 O13            2.5354    -2.1921     0.5348 O.2     
  14 N14           -0.1738    -1.5254     0.3489 N.pl3   
  15 C15           -0.4172    -2.5038    -0.5624 C.2     
  16 N16           -1.4663    -3.1781    -0.1777 N.2     
  17 C17           -1.9262    -2.6662     0.9739 C.2     
  18 C18           -1.1312    -1.6376     1.3243 C.2     
  19 C19           -3.1225    -3.1610     1.7453 C.3     
  20 C20            6.5914     3.2574    -1.6212 C.3     
  21 O21            5.4564     4.0513    -1.9729 O.3     
  22 C22            5.4818     4.6600    -3.1872 C.ar    
  23 C23            4.4601     5.5430    -3.5506 C.ar    
  24 C24            6.5231     4.4123    -4.0668 C.ar    
  25 C25            6.5493     5.0323    -5.3017 C.ar    
  26 C26            5.5365     5.9041    -5.6676 C.ar    
  27 C27            4.4943     6.1631    -4.7976 C.ar    
  28 C28            3.3448     5.8175    -2.6129 C.ar    
  29 C29            2.5978     4.7728    -2.0598 C.ar    
  30 C30            3.0151     7.1275    -2.2531 C.ar    
  31 C31            1.9703     7.3380    -1.3771 C.ar    
  32 N32            1.2871     6.3240    -0.8817 N.ar    
  33 C33            1.5691     5.0726    -1.1914 C.ar    
  34 F34            5.5701     6.5062    -6.8765 F       
  35 C35            1.6047     8.7452    -0.9806 C.3     
  36 F36            0.6535     9.2493    -1.8740 F       
  37 F37            1.0732     8.7419     0.3136 F       
  38 F38            2.7480     9.5508    -1.0131 F       
  39 H39           -0.4372     1.0845     0.0777 H       
  40 H40            1.4250     2.7199     0.0059 H       
  41 H41            5.0006    -0.2950     1.4864 H       
  42 H42            4.7538    -1.5341     0.2278 H       
  43 H43            6.5070     0.1073    -0.4559 H       
  44 H44            5.0887     0.1934    -1.5337 H       
  45 H45            6.2271     3.5373     0.4835 H       
  46 H46            7.3162     2.1828     0.0994 H       
  47 H47            0.1603    -2.6915    -1.4556 H       
  48 H48           -1.2324    -1.0156     2.2014 H       
  49 H49           -2.8055    -3.9218     2.4587 H       
  50 H50           -3.5791    -2.3287     2.2808 H       
  51 H51           -3.8481    -3.5905     1.0545 H       
  52 H52            7.4912     3.8712    -1.6632 H       
  53 H53            6.6849     2.4271    -2.3212 H       
  54 H54            7.3156     3.7340    -3.7870 H       
  55 H55            7.3630     4.8367    -5.9844 H       
  56 H56            3.7060     6.8430    -5.0852 H       
  57 H57            2.8228     3.7463    -2.3091 H       
  58 H58            3.5703     7.9623    -2.6546 H       
  59 H59            0.9837     4.2728    -0.7625 H       
@<TRIPOS>BOND
   1    1    2 2
   2    1    6 1
   3    1   39 1
   4    2    3 1
   5    2   14 1
   6    3    4 am
   7    3   13 2
   8    4    5 1
   9    4    7 1
  10    5    6 2
  11    5   10 1
  12    6   40 1
  13    7    8 1
  14    7   41 1
  15    7   42 1
  16    8    9 1
  17    8   43 1
  18    8   44 1
  19    9   10 am
  20    9   11 1
  21   10   12 2
  22   11   20 1
  23   11   45 1
  24   11   46 1
  25   14   15 1
  26   14   18 1
  27   15   16 2
  28   15   47 1
  29   16   17 1
  30   17   18 2
  31   17   19 1
  32   18   48 1
  33   19   49 1
  34   19   50 1
  35   19   51 1
  36   20   21 1
  37   20   52 1
  38   20   53 1
  39   21   22 1
  40   22   23 ar
  41   22   24 ar
  42   23   27 ar
  43   23   28 1
  44   24   25 ar
  45   24   54 1
  46   25   26 ar
  47   25   55 1
  48   26   27 ar
  49   26   34 1
  50   27   56 1
  51   28   29 ar
  52   28   30 ar
  53   29   33 ar
  54   29   57 1
  55   30   31 ar
  56   30   58 1
  57   31   32 ar
  58   31   35 1
  59   32   33 ar
  60   33   59 1
  61   35   36 1
  62   35   37 1
  63   35   38 1

#	End of record

