#	Name: ASD01885481
#	Creating user name:	WinNT
#	Creation time:	15. 06. 2019 19:49

#	Modifying user name:	WinNT
#	Modification time:	15. 06. 2019 19:49

#	Program:	/corina/corina34_cracker 3.40 0067  02.08.2006

@<TRIPOS>MOLECULE
ASD01885481
  57   60    0    0    0
SMALL
NO_CHARGES


@<TRIPOS>ATOM
   1 C1             0.1043     1.0203     0.1628 C.ar    
   2 C2             0.2210    -0.3692     0.1173 C.ar    
   3 N3            -0.8378    -1.2178     0.1475 N.2     
   4 C4            -1.9463    -1.0736    -0.4822 C.2     
   5 C5            -2.2194     0.1345    -1.3393 C.3     
   6 C6            -2.2073     1.3531    -0.4514 C.2     
   7 N7            -1.1111     1.6891     0.2265 N.am    
   8 C8             1.2563     1.8050     0.1386 C.ar    
   9 C9             2.5096     1.2195     0.0650 C.ar    
  10 C10            2.6265    -0.1668     0.0140 C.ar    
  11 C11            1.4993    -0.9511     0.0396 C.ar    
  12 C12           -2.9792    -2.1167    -0.3634 C.ar    
  13 O13           -3.2055     2.0354    -0.3554 O.2     
  14 C14           -2.6971    -3.3096     0.3104 C.ar    
  15 C15           -3.6647    -4.2878     0.4222 C.ar    
  16 C16           -4.9163    -4.0968    -0.1286 C.ar    
  17 C17           -5.2129    -2.9101    -0.8048 C.ar    
  18 C18           -4.2441    -1.9154    -0.9178 C.ar    
  19 C19           -6.5115    -2.7150    -1.3760 C.1     
  20 N20           -7.5417    -2.5603    -1.8290 N.1     
  21 N21            3.6536     2.0184     0.0416 N.pl3   
  22 C22            4.9106     1.4349     0.1410 C.2     
  23 C23            5.2727     0.6287     1.3616 C.3     
  24 C24            5.7878     1.5866    -0.8340 C.2     
  25 N25            5.3066     1.5087     2.5374 N.3     
  26 C26            5.6570     0.7554     3.7489 C.3     
  27 C27            5.6819     1.6893     4.9314 C.ar    
  28 C28            4.5334     1.8971     5.6722 C.ar    
  29 C29            4.5562     2.7537     6.7569 C.ar    
  30 C30            5.7275     3.4021     7.1011 C.ar    
  31 C31            6.8762     3.1936     6.3608 C.ar    
  32 C32            6.8545     2.3336     5.2787 C.ar    
  33 N33            5.4678     2.4559    -1.9892 N.pl3   
  34 O34            4.3639     2.9620    -2.0832 O.2     
  35 O35            6.3085     2.6648    -2.8455 O.2     
  36 H36           -1.4459     0.2271    -2.1017 H       
  37 H37           -3.1952     0.0353    -1.8146 H       
  38 H38           -1.1662     2.4595     0.8134 H       
  39 H39            1.1707     2.8809     0.1772 H       
  40 H40            3.6026    -0.6250    -0.0460 H       
  41 H41            1.5954    -2.0261    -0.0004 H       
  42 H42           -1.7203    -3.4657     0.7437 H       
  43 H43           -3.4414    -5.2073     0.9429 H       
  44 H44           -5.6681    -4.8668    -0.0370 H       
  45 H45           -4.4681    -0.9963    -1.4390 H       
  46 H46            3.5712     2.9811    -0.0441 H       
  47 H47            4.5288    -0.1533     1.5144 H       
  48 H48            6.2533     0.1745     1.2194 H       
  49 H49            6.7389     1.0768    -0.7889 H       
  50 H50            5.9421     2.2792     2.3941 H       
  51 H51            4.9158    -0.0256     3.9182 H       
  52 H52            6.6403     0.3021     3.6231 H       
  53 H53            3.6183     1.3905     5.4033 H       
  54 H54            3.6588     2.9167     7.3352 H       
  55 H55            5.7452     4.0720     7.9481 H       
  56 H56            7.7912     3.7004     6.6295 H       
  57 H57            7.7519     2.1707     4.7004 H       
@<TRIPOS>BOND
   1    1    2 ar
   2    1    8 ar
   3    1    7 1
   4    2    3 1
   5    2   11 ar
   6    3    4 2
   7    4    5 1
   8    4   12 1
   9    5    6 1
  10    5   36 1
  11    5   37 1
  12    6    7 am
  13    6   13 2
  14    7   38 1
  15    8    9 ar
  16    8   39 1
  17    9   10 ar
  18    9   21 1
  19   10   11 ar
  20   10   40 1
  21   11   41 1
  22   12   14 ar
  23   12   18 ar
  24   14   15 ar
  25   14   42 1
  26   15   16 ar
  27   15   43 1
  28   16   17 ar
  29   16   44 1
  30   17   18 ar
  31   17   19 1
  32   18   45 1
  33   19   20 3
  34   21   22 1
  35   21   46 1
  36   22   23 1
  37   22   24 2
  38   23   25 1
  39   23   47 1
  40   23   48 1
  41   24   33 1
  42   24   49 1
  43   25   26 1
  44   25   50 1
  45   26   27 1
  46   26   51 1
  47   26   52 1
  48   27   28 ar
  49   27   32 ar
  50   28   29 ar
  51   28   53 1
  52   29   30 ar
  53   29   54 1
  54   30   31 ar
  55   30   55 1
  56   31   32 ar
  57   31   56 1
  58   32   57 1
  59   33   34 2
  60   33   35 2

#	End of record

