#	Name: ASD04882212
#	Creating user name:	WinNT
#	Creation time:	15. 06. 2019 20:54

#	Modifying user name:	WinNT
#	Modification time:	15. 06. 2019 20:54

#	Program:	/corina/corina34_cracker 3.40 0067  02.08.2006

@<TRIPOS>MOLECULE
ASD04882212
  73   77    0    0    0
SMALL
NO_CHARGES


@<TRIPOS>ATOM
   1 C1             0.1257     1.4915    -0.4327 C.2     
   2 C2             0.1460     0.0187    -0.4836 C.2     
   3 N3             1.1860    -0.6594     0.0407 N.am    
   4 C4             1.1515    -2.0589     0.1000 C.ar    
   5 C5             2.3302    -2.7946    -0.0510 C.ar    
   6 C6             2.2973    -4.1832     0.0071 C.ar    
   7 C7             1.1040    -4.8388     0.2139 C.ar    
   8 C8            -0.0785    -4.1092     0.3656 C.ar    
   9 C9            -0.0473    -2.7128     0.3134 C.ar    
  10 N10            3.5390    -2.1359    -0.2603 N.3     
  11 C11            3.5460    -1.4481    -1.5590 C.3     
  12 C12            4.6712    -3.0667    -0.1545 C.3     
  13 C13            5.9817    -2.2917    -0.3112 C.3     
  14 N14            5.9887    -1.6039    -1.6099 N.3     
  15 C15            4.8564    -0.6731    -1.7157 C.3     
  16 C16            7.2012    -0.9432    -1.8198 C.ar    
  17 C17            7.9959    -1.2763    -2.9091 C.ar    
  18 C18            7.6123     0.0527    -0.9427 C.ar    
  19 C19            8.8116     0.7040    -1.1532 C.ar    
  20 C20            9.6031     0.3661    -2.2359 C.ar    
  21 C21            9.1944    -0.6209    -3.1137 C.ar    
  22 C22           -1.3567    -4.8117     0.5867 C.2     
  23 N23           -1.3849    -6.1580     0.6425 N.am    
  24 O24           -2.3849    -4.1761     0.7186 O.2     
  25 O25           -0.7758    -0.5848    -0.9989 O.2     
  26 N26            1.0820     2.2952     0.1087 N.2     
  27 C27            0.7102     3.5333    -0.0369 C.2     
  28 O28           -0.4743     3.5674    -0.6643 O.3     
  29 C29           -0.8494     2.3038    -0.9232 C.2     
  30 C30            7.5513    -2.3519    -3.8664 C.3     
  31 C31           -2.6543    -6.8557     0.8620 C.3     
  32 C32           -2.4094    -8.3658     0.8825 C.3     
  33 C33           -3.7351    -9.0944     1.1118 C.3     
  34 N34           -3.5006   -10.5404     1.1315 N.am    
  35 C35           -3.1861   -11.3120     2.3397 C.3     
  36 C36           -2.6052   -12.6510     1.8339 C.3     
  37 C37           -3.2453   -12.7626     0.4308 C.3     
  38 C38           -3.5514   -11.3318     0.0461 C.2     
  39 O39           -3.7992   -10.9528    -1.0790 O.2     
  40 Cl40           1.6053     4.9214     0.4975 Cl      
  41 H41            1.9584    -0.1787     0.3771 H       
  42 H42            3.2096    -4.7492    -0.1106 H       
  43 H43            1.0817    -5.9177     0.2585 H       
  44 H44           -0.9593    -2.1463     0.4303 H       
  45 H45            3.4597    -2.1824    -2.3598 H       
  46 H46            2.7058    -0.7555    -1.6082 H       
  47 H47            4.6514    -3.5541     0.8203 H       
  48 H48            4.5978    -3.8194    -0.9394 H       
  49 H49            6.0679    -1.5574     0.4897 H       
  50 H50            6.8219    -2.9843    -0.2620 H       
  51 H51            4.8763    -0.1857    -2.6905 H       
  52 H52            4.9299     0.0796    -0.9308 H       
  53 H53            6.9945     0.3175    -0.0974 H       
  54 H54            9.1318     1.4782    -0.4717 H       
  55 H55           10.5403     0.8775    -2.3986 H       
  56 H56            9.8148    -0.8823    -3.9582 H       
  57 H57           -0.5647    -6.6651     0.5372 H       
  58 H58           -1.7561     1.9916    -1.4200 H       
  59 H59            6.9604    -1.9051    -4.6660 H       
  60 H60            8.4260    -2.8436    -4.2922 H       
  61 H61            6.9459    -3.0851    -3.3334 H       
  62 H62           -3.0802    -6.5437     1.8156 H       
  63 H63           -3.3473    -6.6109     0.0571 H       
  64 H64           -1.9835    -8.6778    -0.0711 H       
  65 H65           -1.7163    -8.6106     1.6874 H       
  66 H66           -4.1609    -8.7824     2.0654 H       
  67 H67           -4.4281    -8.8496     0.3069 H       
  68 H68           -2.4474   -10.7841     2.9427 H       
  69 H69           -4.0914   -11.4889     2.9204 H       
  70 H70           -1.5184   -12.6033     1.7642 H       
  71 H71           -2.9177   -13.4776     2.4721 H       
  72 H72           -2.5437   -13.2083    -0.2743 H       
  73 H73           -4.1647   -13.3464     0.4762 H       
@<TRIPOS>BOND
   1    1    2 1
   2    1   26 1
   3    1   29 2
   4    2    3 am
   5    2   25 2
   6    3    4 1
   7    3   41 1
   8    4    5 ar
   9    4    9 ar
  10    5    6 ar
  11    5   10 1
  12    6    7 ar
  13    6   42 1
  14    7    8 ar
  15    7   43 1
  16    8    9 ar
  17    8   22 1
  18    9   44 1
  19   10   11 1
  20   10   12 1
  21   11   15 1
  22   11   45 1
  23   11   46 1
  24   12   13 1
  25   12   47 1
  26   12   48 1
  27   13   14 1
  28   13   49 1
  29   13   50 1
  30   14   15 1
  31   14   16 1
  32   15   51 1
  33   15   52 1
  34   16   17 ar
  35   16   18 ar
  36   17   30 1
  37   17   21 ar
  38   18   19 ar
  39   18   53 1
  40   19   20 ar
  41   19   54 1
  42   20   21 ar
  43   20   55 1
  44   21   56 1
  45   22   23 am
  46   22   24 2
  47   23   31 1
  48   23   57 1
  49   26   27 2
  50   27   28 1
  51   27   40 1
  52   28   29 1
  53   29   58 1
  54   30   59 1
  55   30   60 1
  56   30   61 1
  57   31   32 1
  58   31   62 1
  59   31   63 1
  60   32   33 1
  61   32   64 1
  62   32   65 1
  63   33   34 1
  64   33   66 1
  65   33   67 1
  66   34   35 1
  67   34   38 am
  68   35   36 1
  69   35   68 1
  70   35   69 1
  71   36   37 1
  72   36   70 1
  73   36   71 1
  74   37   38 1
  75   37   72 1
  76   37   73 1
  77   38   39 2

#	End of record

