#	Name: ASD01190138
#	Creating user name:	WinNT
#	Creation time:	15. 06. 2019 19:07

#	Modifying user name:	WinNT
#	Modification time:	15. 06. 2019 19:07

#	Program:	/corina/corina34_cracker 3.40 0067  02.08.2006

@<TRIPOS>MOLECULE
ASD01190138
  56   60    0    0    0
SMALL
NO_CHARGES


@<TRIPOS>ATOM
   1 C1            -2.5999    -2.3614    -1.7941 C.2     
   2 C2            -1.4612    -2.1374    -0.9985 C.2     
   3 C3            -0.3595    -2.9904    -1.1429 C.2     
   4 C4            -0.4387    -4.0788    -2.1150 C.2     
   5 C5            -1.5657    -4.2246    -2.8375 C.2     
   6 N6            -2.6240    -3.3778    -2.6754 N.am    
   7 N7            -1.1323    -1.2128    -0.0339 N.pl3   
   8 C8             0.6251    -2.5427    -0.2379 C.2     
   9 C9             0.1278    -1.4718     0.4134 C.2     
  10 O10           -3.5725    -1.6332    -1.6806 O.2     
  11 C11            1.9882    -3.1523    -0.0346 C.3     
  12 C12            2.7452    -2.3634     1.0357 C.3     
  13 O13            1.8446    -4.5102     0.3869 O.3     
  14 N14            4.9083    -3.2423    -4.8381 N.pl3   
  15 N15            5.2711    -4.5932    -4.8448 N.2     
  16 C16            4.7933    -5.1903    -3.7898 C.2     
  17 C17            4.0593    -4.1991    -3.0095 C.ar    
  18 C18            3.3453    -4.2425    -1.8068 C.ar    
  19 C19            2.7570    -3.1070    -1.3299 C.ar    
  20 C20            2.8599    -1.9097    -2.0276 C.ar    
  21 C21            3.5513    -1.8426    -3.2040 C.ar    
  22 C22            4.1623    -2.9845    -3.7150 C.ar    
  23 C23            5.2555    -2.3023    -5.8171 C.ar    
  24 C24            6.4894    -2.3805    -6.4495 C.ar    
  25 C25            6.8297    -1.4529    -7.4143 C.ar    
  26 C26            5.9415    -0.4451    -7.7512 C.ar    
  27 C27            4.7106    -0.3654    -7.1217 C.ar    
  28 C28            4.3641    -1.2944    -6.1605 C.ar    
  29 F29            6.2766     0.4616    -8.6950 F       
  30 F30            2.0314    -2.4054     2.2382 F       
  31 F31            4.0106    -2.9293     1.2245 F       
  32 F32            2.8857    -1.0340     0.6230 F       
  33 C33           -3.8259    -3.5827    -3.4875 C.3     
  34 C34           -1.9965    -0.1268     0.4351 C.3     
  35 C35           -2.9113    -0.6435     1.5154 C.2     
  36 C36           -2.9443    -0.0524     2.6839 C.2     
  37 H37            0.3926    -4.7545    -2.2518 H       
  38 H38           -1.6333    -5.0258    -3.5586 H       
  39 H39            0.6483    -0.9067     1.1724 H       
  40 H40            1.3729    -5.0703    -0.2446 H       
  41 H41            4.9179    -6.2331    -3.5379 H       
  42 H42            3.2600    -5.1694    -1.2591 H       
  43 H43            2.3873    -1.0214    -1.6352 H       
  44 H44            3.6234    -0.9059    -3.7367 H       
  45 H45            7.1824    -3.1660    -6.1868 H       
  46 H46            7.7893    -1.5131    -7.9061 H       
  47 H47            4.0195     0.4215    -7.3856 H       
  48 H48            3.4021    -1.2348    -5.6733 H       
  49 H49           -3.7400    -3.0143    -4.4136 H       
  50 H50           -3.9309    -4.6424    -3.7200 H       
  51 H51           -4.7011    -3.2439    -2.9331 H       
  52 H52           -1.3818     0.6799     0.8346 H       
  53 H53           -2.5924     0.2485    -0.3969 H       
  54 H54           -3.5397    -1.5013     1.3262 H       
  55 H55           -2.3159     0.8054     2.8731 H       
  56 H56           -3.6000    -0.4227     3.4581 H       
@<TRIPOS>BOND
   1    1    2 1
   2    1    6 am
   3    1   10 2
   4    2    3 2
   5    2    7 1
   6    3    4 1
   7    3    8 1
   8    4    5 2
   9    4   37 1
  10    5    6 1
  11    5   38 1
  12    6   33 1
  13    7    9 1
  14    7   34 1
  15    8    9 2
  16    8   11 1
  17    9   39 1
  18   11   12 1
  19   11   13 1
  20   11   19 1
  21   12   30 1
  22   12   31 1
  23   12   32 1
  24   13   40 1
  25   14   15 1
  26   14   22 1
  27   14   23 1
  28   15   16 2
  29   16   17 1
  30   16   41 1
  31   17   18 ar
  32   17   22 ar
  33   18   19 ar
  34   18   42 1
  35   19   20 ar
  36   20   21 ar
  37   20   43 1
  38   21   22 ar
  39   21   44 1
  40   23   24 ar
  41   23   28 ar
  42   24   25 ar
  43   24   45 1
  44   25   26 ar
  45   25   46 1
  46   26   27 ar
  47   26   29 1
  48   27   28 ar
  49   27   47 1
  50   28   48 1
  51   33   49 1
  52   33   50 1
  53   33   51 1
  54   34   35 1
  55   34   52 1
  56   34   53 1
  57   35   36 2
  58   35   54 1
  59   36   55 1
  60   36   56 1

#	End of record

