#	Name: ASD00311292
#	Creating user name:	WinNT
#	Creation time:	15. 06. 2019 18:34

#	Modifying user name:	WinNT
#	Modification time:	15. 06. 2019 18:34

#	Program:	/corina/corina34_cracker 3.40 0067  02.08.2006

@<TRIPOS>MOLECULE
ASD00311292
  40   43    0    0    0
SMALL
NO_CHARGES


@<TRIPOS>ATOM
   1 C1            -0.0179     1.4714     0.0101 C.2     
   2 C2             0.0021    -0.0041     0.0020 C.ar    
   3 C3             1.2220    -0.6869    -0.0133 C.ar    
   4 C4             1.2398    -2.0527    -0.0208 C.ar    
   5 C5             0.0395    -2.7672    -0.0137 C.ar    
   6 C6            -1.1797    -2.0856     0.0016 C.ar    
   7 C7            -1.1989    -0.7199     0.0154 C.ar    
   8 O8             1.0267     2.0936     0.0035 O.2     
   9 N9            -1.1942     2.1293     0.0193 N.am    
  10 C10           -0.5311    -6.4098     0.7157 C.2     
  11 C11           -0.7102    -5.0554     0.9207 C.2     
  12 C12           -1.5751    -4.6248     1.9688 C.2     
  13 C13           -2.2161    -5.5713     2.7576 C.2     
  14 C14           -1.9991    -6.9416     2.5068 C.2     
  15 N15           -1.1815    -7.3271     1.5150 N.am    
  16 C16            0.0596    -4.2464    -0.0229 C.2     
  17 C17            0.7804    -4.9539    -0.8925 C.2     
  18 S18            0.5814    -6.6741    -0.6230 S.3     
  19 O19           -2.5576    -7.7808     3.1943 O.2     
  20 C20           -3.1184    -5.1451     3.8521 C.ar    
  21 C21           -4.4806    -5.4382     3.7907 C.ar    
  22 C22           -5.3161    -5.0390     4.8137 C.ar    
  23 C23           -4.8052    -4.3489     5.8985 C.ar    
  24 C24           -3.4550    -4.0548     5.9649 C.ar    
  25 C25           -2.6084    -4.4542     4.9511 C.ar    
  26 O26           -1.7697    -3.3045     2.1936 O.3     
  27 H27            2.1501    -0.1346    -0.0195 H       
  28 H28            2.1821    -2.5803    -0.0327 H       
  29 H29           -2.1073    -2.6387     0.0071 H       
  30 H30           -2.1415    -0.1931     0.0318 H       
  31 H31           -2.0275     1.6330     0.0205 H       
  32 H32           -1.2073     3.0992     0.0246 H       
  33 H33           -1.0438    -8.2741     1.3566 H       
  34 H34            1.4074    -4.5239    -1.6595 H       
  35 H35           -4.8808    -5.9762     2.9440 H       
  36 H36           -6.3711    -5.2653     4.7673 H       
  37 H37           -5.4632    -4.0382     6.6966 H       
  38 H38           -3.0621    -3.5156     6.8141 H       
  39 H39           -1.5538    -4.2279     5.0062 H       
  40 H40           -2.3727    -3.1148     2.9254 H       
@<TRIPOS>BOND
   1    1    2 1
   2    1    8 2
   3    1    9 am
   4    2    3 ar
   5    2    7 ar
   6    3    4 ar
   7    3   27 1
   8    4    5 ar
   9    4   28 1
  10    5    6 ar
  11    5   16 1
  12    6    7 ar
  13    6   29 1
  14    7   30 1
  15    9   31 1
  16    9   32 1
  17   10   11 2
  18   10   15 1
  19   10   18 1
  20   11   12 1
  21   11   16 1
  22   12   13 2
  23   12   26 1
  24   13   14 1
  25   13   20 1
  26   14   15 am
  27   14   19 2
  28   15   33 1
  29   16   17 2
  30   17   18 1
  31   17   34 1
  32   20   21 ar
  33   20   25 ar
  34   21   22 ar
  35   21   35 1
  36   22   23 ar
  37   22   36 1
  38   23   24 ar
  39   23   37 1
  40   24   25 ar
  41   24   38 1
  42   25   39 1
  43   26   40 1

#	End of record

