#	Name: ASD02038009
#	Creating user name:	WinNT
#	Creation time:	15. 06. 2019 20:16

#	Modifying user name:	WinNT
#	Modification time:	15. 06. 2019 20:16

#	Program:	/corina/corina34_cracker 3.40 0067  02.08.2006

@<TRIPOS>MOLECULE
ASD02038009
  50   53    0    0    0
SMALL
NO_CHARGES


@<TRIPOS>ATOM
   1 C1             1.0550    -0.4251    -0.8059 C.ar    
   2 C2             0.0017    -0.0035    -0.0052 C.ar    
   3 N3            -1.1994    -0.7217     0.0092 N.am    
   4 C4            -2.7150    -4.1822    -0.0498 C.3     
   5 N5            -2.3298    -2.7641     0.0080 N.am    
   6 C6            -1.1827    -2.0649    -0.0999 C.2     
   7 C7            -5.2628    -4.5191     0.0843 C.3     
   8 O8            -6.4912    -4.0967    -0.5112 O.3     
   9 C9            -7.6282    -4.7036    -0.0777 C.ar    
  10 C10           -8.8555    -4.3410    -0.6140 C.ar    
  11 C11           -7.5599    -5.6887     0.8963 C.ar    
  12 C12           -8.7142    -6.3059     1.3372 C.ar    
  13 C13           -9.9429    -5.9397     0.8053 C.ar    
  14 C14          -10.0097    -4.9569    -0.1738 C.ar    
  15 N15          -11.1154    -6.5627     1.2501 N.am    
  16 C16          -12.2407    -6.5021     0.5147 C.2     
  17 C17          -12.2590    -5.7816    -0.8064 C.3     
  18 C18          -11.3449    -4.5610    -0.7486 C.3     
  19 O19           -0.1327    -2.6459    -0.2957 O.2     
  20 O20          -13.2518    -7.0346     0.9212 O.2     
  21 C21            0.1428     1.1320     0.7816 C.ar    
  22 C22            1.3295     1.8384     0.7656 C.ar    
  23 C23            2.2392     0.2856    -0.8174 C.ar    
  24 C24           -3.7474    -2.4446     0.2345 C.3     
  25 C25           -4.1026    -3.7300    -0.5256 C.3     
  26 C26            2.3765     1.4159    -0.0328 C.ar    
  27 F27            4.5258     1.6855     0.9377 F       
  28 F28            4.2761     2.0596    -1.3021 F       
  29 F29            3.4091     3.5397     0.2068 F       
  30 C30            3.6700     2.1890    -0.0479 C.3     
  31 H31            0.9499    -1.3104    -1.4155 H       
  32 H32           -2.0438    -0.2527     0.0976 H       
  33 H33           -2.1638    -4.7516    -0.7982 H       
  34 H34           -2.7278    -4.6687     0.9255 H       
  35 H35           -5.2993    -4.3395     1.1588 H       
  36 H36           -5.1160    -5.5831    -0.1014 H       
  37 H37           -8.9077    -3.5769    -1.3754 H       
  38 H38           -6.6038    -5.9736     1.3098 H       
  39 H39           -8.6608    -7.0734     2.0952 H       
  40 H40          -11.1164    -7.0415     2.0937 H       
  41 H41          -11.9104    -6.4540    -1.5903 H       
  42 H42          -13.2769    -5.4629    -1.0309 H       
  43 H43          -11.7981    -3.7975    -0.1164 H       
  44 H44          -11.2056    -4.1638    -1.7541 H       
  45 H45           -0.6747     1.4627     1.4051 H       
  46 H46            1.4398     2.7218     1.3770 H       
  47 H47            3.0587    -0.0418    -1.4399 H       
  48 H48           -4.0351    -2.4682     1.2855 H       
  49 H49           -4.0740    -1.5364    -0.2722 H       
  50 H50           -4.1854    -3.6026    -1.6049 H       
@<TRIPOS>BOND
   1    1    2 ar
   2    1   23 ar
   3    1   31 1
   4    2   21 ar
   5    2    3 1
   6    3    6 am
   7    3   32 1
   8    4    5 1
   9    4   25 1
  10    4   33 1
  11    4   34 1
  12    5    6 am
  13    5   24 1
  14    6   19 2
  15    7    8 1
  16    7   25 1
  17    7   35 1
  18    7   36 1
  19    8    9 1
  20    9   10 ar
  21    9   11 ar
  22   10   14 ar
  23   10   37 1
  24   11   12 ar
  25   11   38 1
  26   12   13 ar
  27   12   39 1
  28   13   14 ar
  29   13   15 1
  30   14   18 1
  31   15   16 am
  32   15   40 1
  33   16   17 1
  34   16   20 2
  35   17   18 1
  36   17   41 1
  37   17   42 1
  38   18   43 1
  39   18   44 1
  40   21   22 ar
  41   21   45 1
  42   22   26 ar
  43   22   46 1
  44   23   26 ar
  45   23   47 1
  46   24   25 1
  47   24   48 1
  48   24   49 1
  49   25   50 1
  50   26   30 1
  51   27   30 1
  52   28   30 1
  53   29   30 1

#	End of record

