#	Name: ASD01510035
#	Creating user name:	WinNT
#	Creation time:	15. 06. 2019 19:21

#	Modifying user name:	WinNT
#	Modification time:	15. 06. 2019 19:21

#	Program:	/corina/corina34_cracker 3.40 0067  02.08.2006

@<TRIPOS>MOLECULE
ASD01510035
  60   62    0    0    0
SMALL
NO_CHARGES


@<TRIPOS>ATOM
   1 C1            -0.0329     1.5050     0.0308 C.3     
   2 C2            -0.0067    -0.0247     0.0209 C.3     
   3 O3             0.6894    -0.4967     1.1762 O.3     
   4 C4             0.8031    -1.8405     1.3203 C.ar    
   5 N5             0.2824    -2.6617     0.4146 N.ar    
   6 C6             0.3889    -3.9749     0.5478 C.ar    
   7 N7             1.0125    -4.5236     1.5792 N.ar    
   8 C8             1.5588    -3.7678     2.5257 C.ar    
   9 C9             1.4733    -2.3798     2.4182 C.ar    
  10 S10            2.1814    -1.3338     3.6467 S.3     
  11 C11            3.7987    -1.1283     2.9784 C.ar    
  12 N12            4.1062    -1.7269     1.8368 N.ar    
  13 C13            5.3177    -1.5940     1.3028 C.ar    
  14 N14            5.6315    -2.2230     0.1082 N.pl3   
  15 C15            6.2661    -0.8141     1.9600 C.ar    
  16 C16            5.9063    -0.2015     3.1561 C.ar    
  17 N17            4.6745    -0.3747     3.6277 N.ar    
  18 N18            6.8204     0.5856     3.8467 N.am    
  19 C19            6.4332     1.2586     4.9484 C.2     
  20 O20            5.2647     1.2531     5.2850 O.2     
  21 C21            7.4239     1.9994     5.7435 C.2     
  22 C22            7.0417     2.6636     6.8309 C.2     
  23 O23            2.1957    -4.3380     3.5787 O.3     
  24 C24            2.2446    -5.7658     3.6116 C.3     
  25 C25            2.9971    -6.2217     4.8633 C.3     
  26 N26           -0.1680    -4.7978    -0.4188 N.3     
  27 C27            0.0534    -6.2142    -0.0958 C.3     
  28 C28           -0.6429    -7.0882    -1.1417 C.3     
  29 N29           -0.1153    -6.7663    -2.4750 N.3     
  30 C30           -0.3368    -5.3499    -2.7980 C.3     
  31 C31            0.3596    -4.4760    -1.7521 C.3     
  32 C32           -0.7055    -7.6384    -3.4992 C.3     
  33 H33            0.9884     1.8859     0.0205 H       
  34 H34           -0.5638     1.8650    -0.8505 H       
  35 H35           -0.5417     1.8539     0.9293 H       
  36 H36           -1.0279    -0.4056     0.0312 H       
  37 H37            0.5022    -0.3736    -0.8777 H       
  38 H38            4.9659    -2.7644    -0.3443 H       
  39 H39            6.5167    -2.1217    -0.2753 H       
  40 H40            7.2576    -0.6882     1.5509 H       
  41 H41            7.7369     0.6505     3.5358 H       
  42 H42            8.4617     2.0043     5.4446 H       
  43 H43            7.7693     3.2077     7.4148 H       
  44 H44            6.0039     2.6588     7.1298 H       
  45 H45            1.2300    -6.1637     3.6325 H       
  46 H46            2.7603    -6.1323     2.7240 H       
  47 H47            3.0343    -7.3107     4.8884 H       
  48 H48            4.0116    -5.8238     4.8424 H       
  49 H49            2.4813    -5.8552     5.7509 H       
  50 H50            1.1228    -6.4252    -0.0994 H       
  51 H51           -0.3569    -6.4308     0.8905 H       
  52 H52           -0.4558    -8.1389    -0.9204 H       
  53 H53           -1.7158    -6.8970    -1.1192 H       
  54 H54            0.0736    -5.1334    -3.7843 H       
  55 H55           -1.4062    -5.1390    -2.7944 H       
  56 H56            0.1724    -3.4252    -1.9733 H       
  57 H57            1.4324    -4.6671    -1.7745 H       
  58 H58           -1.7873    -7.5056    -3.5101 H       
  59 H59           -0.2978    -7.3788    -4.4762 H       
  60 H60           -0.4693    -8.6778    -3.2715 H       
@<TRIPOS>BOND
   1    1    2 1
   2    1   33 1
   3    1   34 1
   4    1   35 1
   5    2    3 1
   6    2   36 1
   7    2   37 1
   8    3    4 1
   9    4    5 ar
  10    4    9 ar
  11    5    6 ar
  12    6    7 ar
  13    6   26 1
  14    7    8 ar
  15    8    9 ar
  16    8   23 1
  17    9   10 1
  18   10   11 1
  19   11   12 ar
  20   11   17 ar
  21   12   13 ar
  22   13   14 1
  23   13   15 ar
  24   14   38 1
  25   14   39 1
  26   15   16 ar
  27   15   40 1
  28   16   17 ar
  29   16   18 1
  30   18   19 am
  31   18   41 1
  32   19   20 2
  33   19   21 1
  34   21   22 2
  35   21   42 1
  36   22   43 1
  37   22   44 1
  38   23   24 1
  39   24   25 1
  40   24   45 1
  41   24   46 1
  42   25   47 1
  43   25   48 1
  44   25   49 1
  45   26   27 1
  46   26   31 1
  47   27   28 1
  48   27   50 1
  49   27   51 1
  50   28   29 1
  51   28   52 1
  52   28   53 1
  53   29   30 1
  54   29   32 1
  55   30   31 1
  56   30   54 1
  57   30   55 1
  58   31   56 1
  59   31   57 1
  60   32   58 1
  61   32   59 1
  62   32   60 1

#	End of record

