#	Name: ASD01870461
#	Creating user name:	WinNT
#	Creation time:	15. 06. 2019 19:39

#	Modifying user name:	WinNT
#	Modification time:	15. 06. 2019 19:39

#	Program:	/corina/corina34_cracker 3.40 0067  02.08.2006

@<TRIPOS>MOLECULE
ASD01870461
  55   60    0    0    0
SMALL
NO_CHARGES


@<TRIPOS>ATOM
   1 H1             0.0018    -0.0883     0.0478 H       
   2 C2             0.0008     1.0015     0.0252 C.3     
   3 C3            -0.6659     1.6150     1.2742 C.3     
   4 N4             0.4614     1.9748     2.1647 N.am    
   5 C5             1.4935     2.5135     1.2493 C.3     
   6 C6             1.4343     1.5979     0.0088 C.3     
   7 H7             2.2069     0.8292     0.0224 H       
   8 C8             1.4833     2.4749    -1.2597 C.3     
   9 N9             0.4397     1.9077    -2.1511 N.3     
  10 C10           -0.6759     1.5629    -1.2426 C.3     
  11 C11            0.0425     2.8358    -3.1066 C.ar    
  12 C12           -0.9355     2.4940    -4.0348 C.ar    
  13 C13           -1.3216     3.4276    -4.9800 C.ar    
  14 C14           -0.7143     4.6760    -4.9648 C.ar    
  15 C15            0.2497     4.9476    -4.0145 C.ar    
  16 N16            0.5947     4.0394    -3.1217 N.ar    
  17 C17            0.5318     1.8426     3.5041 C.2     
  18 O18           -0.4382     1.4678     4.1283 O.2     
  19 C19            1.8158     2.1605     4.2262 C.3     
  20 C20            2.9123     1.1987     3.7642 C.3     
  21 C21            4.2159     1.5215     4.4973 C.3     
  22 H22            4.9971     0.8363     4.1681 H       
  23 C23            4.6341     2.9596     4.1848 C.3     
  24 C24            3.5376     3.9214     4.6468 C.3     
  25 H25            3.8355     4.9460     4.4243 H       
  26 C26            3.3264     3.7678     6.1544 C.3     
  27 C27            2.9082     2.3296     6.4668 C.3     
  28 H28            2.7578     2.2201     7.5408 H       
  29 C29            4.0047     1.3678     6.0048 C.3     
  30 C30            1.6046     2.0069     5.7338 C.3     
  31 C31            2.2340     3.5987     3.9138 C.3     
  32 H32           -1.2343     2.5047     1.0028 H       
  33 H33           -1.3129     0.8829     1.7575 H       
  34 H34            1.2575     3.5415     0.9741 H       
  35 H35            2.4781     2.4604     1.7138 H       
  36 H36            1.2508     3.5111    -1.0141 H       
  37 H37            2.4637     2.4063    -1.7311 H       
  38 H38           -1.3255     0.8112    -1.6908 H       
  39 H39           -1.2431     2.4625    -1.0036 H       
  40 H40           -1.3870     1.5131    -4.0181 H       
  41 H41           -2.0781     3.1904    -5.7133 H       
  42 H42           -0.9929     5.4270    -5.6893 H       
  43 H43            0.7247     5.9174    -3.9991 H       
  44 H44            2.6144     0.1741     3.9868 H       
  45 H45            3.0628     1.3082     2.6902 H       
  46 H46            5.5628     3.1896     4.7071 H       
  47 H47            4.7846     3.0691     3.1108 H       
  48 H48            4.2551     3.9977     6.6767 H       
  49 H49            2.5452     4.4530     6.4835 H       
  50 H50            3.7068     0.3432     6.2274 H       
  51 H51            4.9334     1.5977     6.5271 H       
  52 H52            0.8234     2.6921     6.0629 H       
  53 H53            1.3067     0.9823     5.9563 H       
  54 H54            2.3844     3.7081     2.8398 H       
  55 H55            1.4528     4.2839     4.2429 H       
@<TRIPOS>BOND
   1    1    2 1
   2    2    6 1
   3    2   10 1
   4    2    3 1
   5    3    4 1
   6    3   32 1
   7    3   33 1
   8    4    5 1
   9    4   17 am
  10    5    6 1
  11    5   34 1
  12    5   35 1
  13    6    7 1
  14    6    8 1
  15    8    9 1
  16    8   36 1
  17    8   37 1
  18    9   10 1
  19    9   11 1
  20   10   38 1
  21   10   39 1
  22   11   16 ar
  23   11   12 ar
  24   12   13 ar
  25   12   40 1
  26   13   14 ar
  27   13   41 1
  28   14   15 ar
  29   14   42 1
  30   15   16 ar
  31   15   43 1
  32   17   18 2
  33   17   19 1
  34   19   30 1
  35   19   31 1
  36   19   20 1
  37   20   21 1
  38   20   44 1
  39   20   45 1
  40   21   29 1
  41   21   22 1
  42   21   23 1
  43   23   24 1
  44   23   46 1
  45   23   47 1
  46   24   25 1
  47   24   26 1
  48   24   31 1
  49   26   27 1
  50   26   48 1
  51   26   49 1
  52   27   28 1
  53   27   29 1
  54   27   30 1
  55   29   50 1
  56   29   51 1
  57   30   52 1
  58   30   53 1
  59   31   54 1
  60   31   55 1

#	End of record

