#	Name: ASD01916514
#	Creating user name:	WinNT
#	Creation time:	15. 06. 2019 20:07

#	Modifying user name:	WinNT
#	Modification time:	15. 06. 2019 20:07

#	Program:	/corina/corina34_cracker 3.40 0067  02.08.2006

@<TRIPOS>MOLECULE
ASD01916514
  41   43    0    0    0
SMALL
NO_CHARGES


@<TRIPOS>ATOM
   1 C1            -0.0168     1.3912     0.0097 C.ar    
   2 C2             0.0021    -0.0041     0.0020 C.ar    
   3 C3             1.2204    -0.6594    -0.0131 C.ar    
   4 C4             2.3820     0.1007    -0.0201 C.ar    
   5 C5             2.2905     1.4803    -0.0118 C.ar    
   6 N6             1.1180     2.0808     0.0026 N.ar    
   7 C7            -1.2697     2.0847     0.0194 C.1     
   8 C8            -2.2967     2.6533     0.0273 C.1     
   9 C9            -3.5846     3.3662     0.0372 C.3     
  10 C10           -3.3321     4.8752     0.0443 C.3     
  11 O11           -5.3521     5.9960    -1.0138 O.3     
  12 N12           -6.3670     6.5560    -0.6565 N.2     
  13 C13           -6.4306     6.5874     0.6410 C.2     
  14 N14           -5.3290     5.9771     1.1131 N.2     
  15 C15           -4.6505     5.6051     0.0544 C.2     
  16 C16           -7.5357     7.1959     1.4653 C.3     
  17 C17           -8.5911     6.1551     1.7371 C.ar    
  18 C18           -8.5019     5.3596     2.8644 C.ar    
  19 C19           -9.4681     4.4048     3.1158 C.ar    
  20 C20          -10.5286     4.2445     2.2359 C.ar    
  21 C21          -10.6159     5.0439     1.1054 C.ar    
  22 C22           -9.6501     6.0011     0.8615 C.ar    
  23 O23          -11.4802     3.3056     2.4807 O.3     
  24 C24          -12.5431     3.1964     1.5318 C.3     
  25 H25           -0.9212    -0.5644     0.0082 H       
  26 H26            1.2668    -1.7384    -0.0190 H       
  27 H27            3.3484    -0.3812    -0.0315 H       
  28 H28            3.1928     2.0739    -0.0172 H       
  29 H29           -4.1555     3.0975    -0.8515 H       
  30 H30           -4.1471     3.0878     0.9284 H       
  31 H31           -2.7611     5.1440     0.9330 H       
  32 H32           -2.7695     5.1536    -0.8469 H       
  33 H33           -7.1283     7.5555     2.4102 H       
  34 H34           -7.9790     8.0292     0.9202 H       
  35 H35           -7.6759     5.4846     3.5489 H       
  36 H36           -9.3978     3.7835     3.9963 H       
  37 H37          -11.4405     4.9210     0.4189 H       
  38 H38           -9.7201     6.6269    -0.0159 H       
  39 H39          -13.0762     4.1452     1.4726 H       
  40 H40          -12.1323     2.9488     0.5530 H       
  41 H41          -13.2314     2.4118     1.8460 H       
@<TRIPOS>BOND
   1    1    2 ar
   2    1    6 ar
   3    1    7 1
   4    2    3 ar
   5    2   25 1
   6    3    4 ar
   7    3   26 1
   8    4    5 ar
   9    4   27 1
  10    5    6 ar
  11    5   28 1
  12    7    8 3
  13    8    9 1
  14    9   10 1
  15    9   29 1
  16    9   30 1
  17   10   15 1
  18   10   31 1
  19   10   32 1
  20   11   12 1
  21   11   15 1
  22   12   13 2
  23   13   14 1
  24   13   16 1
  25   14   15 2
  26   16   17 1
  27   16   33 1
  28   16   34 1
  29   17   18 ar
  30   17   22 ar
  31   18   19 ar
  32   18   35 1
  33   19   20 ar
  34   19   36 1
  35   20   21 ar
  36   20   23 1
  37   21   22 ar
  38   21   37 1
  39   22   38 1
  40   23   24 1
  41   24   39 1
  42   24   40 1
  43   24   41 1

#	End of record

