#	Name: ASD01880526
#	Creating user name:	WinNT
#	Creation time:	15. 06. 2019 19:40

#	Modifying user name:	WinNT
#	Modification time:	15. 06. 2019 19:40

#	Program:	/corina/corina34_cracker 3.40 0067  02.08.2006

@<TRIPOS>MOLECULE
ASD01880526
  44   46    0    0    0
SMALL
NO_CHARGES


@<TRIPOS>ATOM
   1 N1            -0.0158     1.3135     0.0093 N.ar    
   2 C2             0.0021    -0.0041     0.0020 C.ar    
   3 N3             1.1319    -0.6827    -0.0120 N.ar    
   4 C4             2.2989    -0.0565    -0.0197 C.ar    
   5 C5             2.3196     1.3315    -0.0129 C.ar    
   6 C6             1.1114     2.0079     0.0022 C.ar    
   7 C7             3.6253     2.0839    -0.0209 C.3     
   8 O8             4.0259     2.3285    -1.3706 O.3     
   9 C9             5.1900     3.0012    -1.5555 C.ar    
  10 C10            5.6387     3.2729    -2.8443 C.ar    
  11 C11            6.8161     3.9537    -3.0300 C.ar    
  12 C12            7.5698     4.3773    -1.9302 C.ar    
  13 C13            7.1144     4.1022    -0.6379 C.ar    
  14 C14            5.9300     3.4230    -0.4573 C.ar    
  15 C15            7.5684     4.3999    -4.2589 C.3     
  16 N16            8.7708     5.0884    -3.7757 N.am    
  17 C17            8.7675     5.0730    -2.4318 C.2     
  18 O18            9.6303     5.5639    -1.7297 O.2     
  19 Cl19           3.7818    -0.9588    -0.0376 Cl      
  20 C20            1.0553     4.0318    -1.4296 C.3     
  21 C21            1.0800     3.5146     0.0101 C.3     
  22 C22           10.5243     7.7838    -5.7822 C.3     
  23 C23            9.4444     7.1527    -4.9011 C.3     
  24 C24            9.8048     5.6927    -4.6194 C.3     
  25 H25           -0.9342    -0.5424     0.0081 H       
  26 H26            3.5004     3.0339     0.4989 H       
  27 H27            4.3890     1.4917     0.4831 H       
  28 H28            5.0615     2.9482    -3.6975 H       
  29 H29            7.6889     4.4244     0.2180 H       
  30 H30            5.5785     3.2111     0.5416 H       
  31 H31            7.8481     3.5357    -4.8614 H       
  32 H32            6.9554     5.0839    -4.8458 H       
  33 H33            1.0326     5.1215    -1.4239 H       
  34 H34            1.9476     3.6897    -1.9539 H       
  35 H35            0.1681     3.6525    -1.9367 H       
  36 H36            0.1876     3.8566     0.5344 H       
  37 H37            1.9671     3.8938     0.5173 H       
  38 H38           11.4845     7.7392    -5.2682 H       
  39 H39           10.5903     7.2378    -6.7233 H       
  40 H40           10.2675     8.8239    -5.9829 H       
  41 H41            9.3784     7.6987    -3.9600 H       
  42 H42            8.4842     7.1972    -5.4151 H       
  43 H43           10.7650     5.6481    -4.1054 H       
  44 H44            9.8708     5.1467    -5.5605 H       
@<TRIPOS>BOND
   1    1    2 ar
   2    1    6 ar
   3    2    3 ar
   4    2   25 1
   5    3    4 ar
   6    4    5 ar
   7    4   19 1
   8    5    6 ar
   9    5    7 1
  10    6   21 1
  11    7    8 1
  12    7   26 1
  13    7   27 1
  14    8    9 1
  15    9   10 ar
  16    9   14 ar
  17   10   11 ar
  18   10   28 1
  19   11   12 ar
  20   11   15 1
  21   12   13 ar
  22   12   17 1
  23   13   14 ar
  24   13   29 1
  25   14   30 1
  26   15   16 1
  27   15   31 1
  28   15   32 1
  29   16   17 am
  30   16   24 1
  31   17   18 2
  32   20   21 1
  33   20   33 1
  34   20   34 1
  35   20   35 1
  36   21   36 1
  37   21   37 1
  38   22   23 1
  39   22   38 1
  40   22   39 1
  41   22   40 1
  42   23   24 1
  43   23   41 1
  44   23   42 1
  45   24   43 1
  46   24   44 1

#	End of record

