#	Name: ASD01230805
#	Creating user name:	WinNT
#	Creation time:	15. 06. 2019 19:15

#	Modifying user name:	WinNT
#	Modification time:	15. 06. 2019 19:15

#	Program:	/corina/corina34_cracker 3.40 0067  02.08.2006

@<TRIPOS>MOLECULE
ASD01230805
  27   27    0    0    0
SMALL
NO_CHARGES


@<TRIPOS>ATOM
   1 C1            -0.0180     1.4742     0.0101 C.2     
   2 C2             0.0021    -0.0041     0.0020 C.ar    
   3 C3             1.2184    -0.6885    -0.0133 C.ar    
   4 C4             1.2301    -2.0680    -0.0203 C.ar    
   5 C5             0.0396    -2.7730    -0.0127 C.ar    
   6 C6            -1.1695    -2.1007     0.0024 C.ar    
   7 C7            -1.1952    -0.7214     0.0154 C.ar    
   8 O8             1.0263     2.0963     0.0035 O.2     
   9 N9            -1.1942     2.1322     0.0193 N.am    
  10 N10           -1.2127     3.4980     0.0268 N.3     
  11 C11            0.0601    -4.2798    -0.0215 C.3     
  12 C12           -0.6420    -4.8067     1.2317 C.3     
  13 C13           -0.6664    -4.7925    -1.2666 C.3     
  14 H14            2.1484    -0.1393    -0.0199 H       
  15 H15            2.1706    -2.5988    -0.0321 H       
  16 H16           -2.0953    -2.6569     0.0083 H       
  17 H17           -2.1396    -0.1978     0.0318 H       
  18 H18           -2.0276     1.6358     0.0206 H       
  19 H19           -2.1595     3.8468     0.0332 H       
  20 H20           -0.6879     3.8625     0.8077 H       
  21 H21            1.0925    -4.6291    -0.0335 H       
  22 H22           -1.6744    -4.4574     1.2438 H       
  23 H23           -0.6272    -5.8966     1.2254 H       
  24 H24           -0.1245    -4.4414     2.1188 H       
  25 H25           -0.6516    -5.8824    -1.2730 H       
  26 H26           -1.6988    -4.4432    -1.2546 H       
  27 H27           -0.1662    -4.4171    -2.1594 H       
@<TRIPOS>BOND
   1    1    2 1
   2    1    8 2
   3    1    9 am
   4    2    3 ar
   5    2    7 ar
   6    3    4 ar
   7    3   14 1
   8    4    5 ar
   9    4   15 1
  10    5    6 ar
  11    5   11 1
  12    6    7 ar
  13    6   16 1
  14    7   17 1
  15    9   10 1
  16    9   18 1
  17   10   19 1
  18   10   20 1
  19   11   12 1
  20   11   13 1
  21   11   21 1
  22   12   22 1
  23   12   23 1
  24   12   24 1
  25   13   25 1
  26   13   26 1
  27   13   27 1

#	End of record

