#	Name: ASD07931706
#	Creating user name:	WinNT
#	Creation time:	15. 06. 2019 21:13

#	Modifying user name:	WinNT
#	Modification time:	15. 06. 2019 21:13

#	Program:	/corina/corina34_cracker 3.40 0067  02.08.2006

@<TRIPOS>MOLECULE
ASD07931706
  27   28    0    0    0
SMALL
NO_CHARGES


@<TRIPOS>ATOM
   1 C1             0.0151     1.5375     0.0047 C.3     
   2 C2            -0.0087    -0.0001     0.0001 C.3     
   3 C3             1.3717     0.0548     0.6756 C.3     
   4 C4             1.5494     1.4353     0.0220 C.3     
   5 O5            -0.5063     2.1216    -1.1906 O.3     
   6 O6             0.0175    -0.5691    -1.3104 O.3     
   7 C7            -0.4763    -1.8279    -1.4466 C.ar    
   8 C8            -0.5879    -2.3981    -2.7065 C.ar    
   9 C9            -1.0902    -3.6776    -2.8422 C.ar    
  10 C10           -1.4821    -4.3900    -1.7237 C.ar    
  11 C11           -1.3724    -3.8240    -0.4672 C.ar    
  12 C12           -0.8644    -2.5469    -0.3256 C.ar    
  13 C13           -0.1618    -1.6220    -3.9260 C.3     
  14 F14           -0.3680    -2.4005    -5.0699 F       
  15 F15           -0.9169    -0.4478    -4.0188 F       
  16 F16            1.1948    -1.2969    -3.8214 F       
  17 H17           -0.4034     1.9779     0.9097 H       
  18 H18           -0.7875    -0.4266     0.6323 H       
  19 H19            1.3241     0.0899     1.7640 H       
  20 H20            2.0691    -0.6966     0.3055 H       
  21 H21            1.9954     1.3938    -0.9717 H       
  22 H22            2.0285     2.1677     0.6717 H       
  23 H23           -0.4940     3.0885    -1.1937 H       
  24 H24           -1.1772    -4.1219    -3.8228 H       
  25 H25           -1.8750    -5.3902    -1.8319 H       
  26 H26           -1.6795    -4.3823     0.4048 H       
  27 H27           -0.7744    -2.1069     0.6566 H       
@<TRIPOS>BOND
   1    1    2 1
   2    1    4 1
   3    1    5 1
   4    1   17 1
   5    2    3 1
   6    2    6 1
   7    2   18 1
   8    3    4 1
   9    3   19 1
  10    3   20 1
  11    4   21 1
  12    4   22 1
  13    5   23 1
  14    6    7 1
  15    7    8 ar
  16    7   12 ar
  17    8    9 ar
  18    8   13 1
  19    9   10 ar
  20    9   24 1
  21   10   11 ar
  22   10   25 1
  23   11   12 ar
  24   11   26 1
  25   12   27 1
  26   13   14 1
  27   13   15 1
  28   13   16 1

#	End of record

