#	Name: ASD01680056
#	Creating user name:	WinNT
#	Creation time:	15. 06. 2019 19:22

#	Modifying user name:	WinNT
#	Modification time:	15. 06. 2019 19:22

#	Program:	/corina/corina34_cracker 3.40 0067  02.08.2006

@<TRIPOS>MOLECULE
ASD01680056
  87   90    0    0    0
SMALL
NO_CHARGES


@<TRIPOS>ATOM
   1 N1            -0.0339    -0.7576    -0.1583 N.am    
   2 C2             0.2214    -2.1955    -0.3599 C.3     
   3 C3             1.6474    -2.4273     0.1993 C.3     
   4 C4             2.3651    -1.1190    -0.2258 C.3     
   5 C5             1.2558    -0.0553    -0.0867 C.3     
   6 C6            -1.2484    -0.1814    -0.0616 C.2     
   7 O7            -2.2513    -0.8455    -0.2340 O.2     
   8 O8            -1.3505     1.1299     0.2260 O.3     
   9 O9             3.4545    -0.8314     0.6532 O.3     
  10 C10            4.5311    -0.1257     0.0329 C.3     
  11 C11            5.6186     0.1230     1.0462 C.2     
  12 N12            6.7398     0.7775     0.6844 N.am    
  13 O13            5.4848    -0.2658     2.1871 O.2     
  14 C14            7.7970     1.0193     1.6694 C.3     
  15 C15            8.9497     1.7749     1.0053 C.3     
  16 N16            8.4379     2.9996     0.3852 N.am    
  17 S17            9.0983     3.5493    -1.0304 S.o2    
  18 O18            8.3718     4.7180    -1.3849 O.2     
  19 O19           10.5075     3.5358    -0.8477 O.2     
  20 C20            8.7460     2.3489    -2.2712 C.ar    
  21 C21            9.6949     1.4006    -2.6047 C.ar    
  22 C22            9.4184     0.4589    -3.5782 C.ar    
  23 C23            8.1929     0.4651    -4.2177 C.ar    
  24 C24            7.2437     1.4129    -3.8835 C.ar    
  25 C25            7.5185     2.3519    -2.9070 C.ar    
  26 C26            6.4818     3.3819    -2.5390 C.3     
  27 C27            7.8919    -0.5609    -5.2796 C.3     
  28 C28           11.0309     1.3938    -1.9075 C.3     
  29 C29            9.9815     2.1313     2.0443 C.2     
  30 O30           10.2606     3.2894     2.2461 O.2     
  31 O31           10.5904     1.1621     2.7455 O.3     
  32 C32           -0.7976    -3.0313     0.4172 C.3     
  33 N33           -0.7947    -2.6211     1.8236 N.pl3   
  34 C34           -1.7088    -3.1763     2.7113 C.ar    
  35 C35           -2.6226    -4.1202     2.2571 C.ar    
  36 C36           -3.5294    -4.6685     3.1489 C.ar    
  37 C37           -3.4931    -4.2539     4.4705 C.ar    
  38 C38           -2.5541    -3.3063     4.8595 C.ar    
  39 N39           -1.6967    -2.8046     3.9827 N.ar    
  40 N40           -2.5106    -2.8841     6.1830 N.pl3   
  41 C41           -2.6901     1.6830     0.3145 C.3     
  42 C42           -2.6066     3.1517     0.6417 C.ar    
  43 C43           -2.5386     4.0839    -0.3768 C.ar    
  44 C44           -2.4620     5.4311    -0.0767 C.ar    
  45 C45           -2.4537     5.8461     1.2419 C.ar    
  46 C46           -2.5225     4.9139     2.2603 C.ar    
  47 C47           -2.6035     3.5670     1.9602 C.ar    
  48 H48            0.1854    -2.4421    -1.4210 H       
  49 H49            1.6298    -2.5284     1.2845 H       
  50 H50            2.1126    -3.2968    -0.2651 H       
  51 H51            2.7085    -1.1855    -1.2582 H       
  52 H52            1.3304     0.6667    -0.9000 H       
  53 H53            1.3481     0.4534     0.8729 H       
  54 H54            4.9296    -0.7203    -0.7891 H       
  55 H55            4.1674     0.8274    -0.3511 H       
  56 H56            6.8469     1.0885    -0.2281 H       
  57 H57            7.3986     1.6140     2.4914 H       
  58 H58            8.1607     0.0662     2.0534 H       
  59 H59            9.4056     1.1443     0.2419 H       
  60 H60            7.7122     3.4884     0.8038 H       
  61 H61           10.1600    -0.2816    -3.8393 H       
  62 H62            6.2864     1.4180    -4.3834 H       
  63 H63            6.6589     4.2949    -3.1076 H       
  64 H64            5.4888     2.9966    -2.7704 H       
  65 H65            6.5480     3.5992    -1.4730 H       
  66 H66            7.4418    -1.4399    -4.8184 H       
  67 H67            7.1997    -0.1380    -6.0077 H       
  68 H68            8.8166    -0.8470    -5.7810 H       
  69 H69           10.9050     1.0395    -0.8844 H       
  70 H70           11.7149     0.7326    -2.4394 H       
  71 H71           11.4390     2.4044    -1.8944 H       
  72 H72           11.2450     1.4396     3.4009 H       
  73 H73           -1.7910    -2.8771    -0.0042 H       
  74 H74           -0.5324    -4.0861     0.3458 H       
  75 H75           -0.1549    -1.9620     2.1353 H       
  76 H76           -2.6256    -4.4224     1.2202 H       
  77 H77           -4.2498    -5.4034     2.8211 H       
  78 H78           -4.1872    -4.6622     5.1901 H       
  79 H79           -3.1338    -3.2506     6.8297 H       
  80 H80           -1.8571    -2.2229     6.4600 H       
  81 H81           -3.2011     1.5517    -0.6393 H       
  82 H82           -3.2452     1.1672     1.0981 H       
  83 H83           -2.5451     3.7597    -1.4069 H       
  84 H84           -2.4082     6.1594    -0.8724 H       
  85 H85           -2.3930     6.8986     1.4764 H       
  86 H86           -2.5157     5.2382     3.2905 H       
  87 H87           -2.6610     2.8389     2.7558 H       
@<TRIPOS>BOND
   1    1    2 1
   2    1    5 1
   3    1    6 am
   4    2    3 1
   5    2   32 1
   6    2   48 1
   7    3    4 1
   8    3   49 1
   9    3   50 1
  10    4    5 1
  11    4    9 1
  12    4   51 1
  13    5   52 1
  14    5   53 1
  15    6    7 2
  16    6    8 1
  17    8   41 1
  18    9   10 1
  19   10   11 1
  20   10   54 1
  21   10   55 1
  22   11   12 am
  23   11   13 2
  24   12   14 1
  25   12   56 1
  26   14   15 1
  27   14   57 1
  28   14   58 1
  29   15   16 1
  30   15   29 1
  31   15   59 1
  32   16   17 am
  33   16   60 1
  34   17   18 2
  35   17   19 2
  36   17   20 1
  37   20   21 ar
  38   20   25 ar
  39   21   22 ar
  40   21   28 1
  41   22   23 ar
  42   22   61 1
  43   23   24 ar
  44   23   27 1
  45   24   25 ar
  46   24   62 1
  47   25   26 1
  48   26   63 1
  49   26   64 1
  50   26   65 1
  51   27   66 1
  52   27   67 1
  53   27   68 1
  54   28   69 1
  55   28   70 1
  56   28   71 1
  57   29   30 2
  58   29   31 1
  59   31   72 1
  60   32   33 1
  61   32   73 1
  62   32   74 1
  63   33   34 1
  64   33   75 1
  65   34   35 ar
  66   34   39 ar
  67   35   36 ar
  68   35   76 1
  69   36   37 ar
  70   36   77 1
  71   37   38 ar
  72   37   78 1
  73   38   39 ar
  74   38   40 1
  75   40   79 1
  76   40   80 1
  77   41   42 1
  78   41   81 1
  79   41   82 1
  80   42   43 ar
  81   42   47 ar
  82   43   44 ar
  83   43   83 1
  84   44   45 ar
  85   44   84 1
  86   45   46 ar
  87   45   85 1
  88   46   47 ar
  89   46   86 1
  90   47   87 1

#	End of record

