#	Name: ASD01910893
#	Creating user name:	WinNT
#	Creation time:	15. 06. 2019 19:56

#	Modifying user name:	WinNT
#	Modification time:	15. 06. 2019 19:56

#	Program:	/corina/corina34_cracker 3.40 0067  02.08.2006

@<TRIPOS>MOLECULE
ASD01910893
  45   48    0    0    0
SMALL
NO_CHARGES


@<TRIPOS>ATOM
   1 C1            -0.4881     2.5436     0.7934 C.ar    
   2 C2            -0.3177     1.1836     0.5904 C.ar    
   3 C3            -1.4172     0.3590     0.4703 C.ar    
   4 C4            -2.7005     0.8956     0.5539 C.ar    
   5 C5            -2.8674     2.2639     0.7585 C.ar    
   6 C6            -1.7624     3.0806     0.8823 C.ar    
   7 F7             0.5913     3.3477     0.9104 F       
   8 C8            -3.8860     0.0126     0.4248 C.2     
   9 N9            -5.1818     0.3945     0.4852 N.2     
  10 C10           -5.8797    -0.7019     0.3225 C.2     
  11 O11           -5.0084    -1.7041     0.1701 O.3     
  12 N12           -3.8734    -1.2799     0.2256 N.2     
  13 C13           -7.3825    -0.8127     0.3100 C.3     
  14 C14           -7.8423    -1.3765    -1.0376 C.3     
  15 C15           -9.3682    -1.2725    -1.1444 C.3     
  16 N16           -9.9634    -1.8404     0.0649 N.pl3   
  17 C17           -9.2968    -2.0646     1.2256 C.2     
  18 C18           -7.8362    -1.7532     1.4347 C.3     
  19 C19          -11.2322    -2.2416     0.2739 C.2     
  20 N20          -11.2981    -2.6818     1.5042 N.2     
  21 N21          -10.1434    -2.5749     2.0673 N.2     
  22 C22          -12.3626    -2.1922    -0.7215 C.3     
  23 C23          -12.0648    -3.1470    -1.8793 C.3     
  24 C24          -13.6644    -2.6122    -0.0360 C.3     
  25 C25          -12.5063    -0.7672    -1.2597 C.3     
  26 H26            0.6773     0.7685     0.5257 H       
  27 H27           -1.2835    -0.7009     0.3114 H       
  28 H28           -3.8603     2.6838     0.8239 H       
  29 H29           -1.8908     4.1411     1.0413 H       
  30 H30           -7.8214     0.1736     0.4606 H       
  31 H31           -7.3822    -0.8072    -1.8452 H       
  32 H32           -7.5434    -2.4219    -1.1148 H       
  33 H33           -9.6577    -0.2258    -1.2374 H       
  34 H34           -9.7123    -1.8281    -2.0168 H       
  35 H35           -7.2549    -2.6746     1.4007 H       
  36 H36           -7.6983    -1.2658     2.3999 H       
  37 H37          -11.8578    -4.1421    -1.4855 H       
  38 H38          -12.9271    -3.1916    -2.5445 H       
  39 H39          -11.1972    -2.7876    -2.4327 H       
  40 H40          -13.8766    -1.9319     0.7888 H       
  41 H41          -14.4820    -2.5764    -0.7560 H       
  42 H42          -13.5620    -3.6273     0.3474 H       
  43 H43          -11.5789    -0.4680    -1.7481 H       
  44 H44          -13.3239    -0.7315    -1.9797 H       
  45 H45          -12.7185    -0.0869    -0.4349 H       
@<TRIPOS>BOND
   1    1    2 ar
   2    1    7 1
   3    1    6 ar
   4    2    3 ar
   5    2   26 1
   6    3    4 ar
   7    3   27 1
   8    4    5 ar
   9    4    8 1
  10    5    6 ar
  11    5   28 1
  12    6   29 1
  13    8    9 1
  14    8   12 2
  15    9   10 2
  16   10   11 1
  17   10   13 1
  18   11   12 1
  19   13   14 1
  20   13   18 1
  21   13   30 1
  22   14   15 1
  23   14   31 1
  24   14   32 1
  25   15   16 1
  26   15   33 1
  27   15   34 1
  28   16   17 1
  29   16   19 1
  30   17   18 1
  31   17   21 2
  32   18   35 1
  33   18   36 1
  34   19   20 2
  35   19   22 1
  36   20   21 1
  37   22   23 1
  38   22   24 1
  39   22   25 1
  40   23   37 1
  41   23   38 1
  42   23   39 1
  43   24   40 1
  44   24   41 1
  45   24   42 1
  46   25   43 1
  47   25   44 1
  48   25   45 1

#	End of record

