#	Name: ASD08178458
#	Creating user name:	WinNT
#	Creation time:	15. 06. 2019 21:19

#	Modifying user name:	WinNT
#	Modification time:	15. 06. 2019 21:19

#	Program:	/corina/corina34_cracker 3.40 0067  02.08.2006

@<TRIPOS>MOLECULE
ASD08178458
  65   68    0    0    0
SMALL
NO_CHARGES


@<TRIPOS>ATOM
   1 O1             2.1677     3.8662     0.0115 O.2     
   2 C2             1.1256     3.2459     0.0121 C.2     
   3 N3             1.1435     1.8983     0.0013 N.am    
   4 C4            -0.1894     3.9818     0.0311 C.3     
   5 C5             2.3548     1.2181    -0.1191 C.ar    
   6 C6             2.3897    -0.1720    -0.0228 C.ar    
   7 N7             3.4765     1.8895    -0.3310 N.ar    
   8 N8             4.6114     1.3015    -0.4476 N.ar    
   9 C9             4.7374    -0.0082    -0.3646 C.ar    
  10 C10            3.6187    -0.8006    -0.1495 C.ar    
  11 C11            6.0955    -0.6452    -0.5094 C.3     
  12 C12            6.7277    -0.2035    -1.8308 C.3     
  13 C13            8.1065    -0.8502    -1.9777 C.3     
  14 C14            8.7388    -0.4085    -3.2992 C.3     
  15 C15           10.0968    -1.0455    -3.4439 C.2     
  16 N16           10.3496    -2.1876    -4.0000 N.2     
  17 N17           11.5589    -2.5495    -4.0228 N.2     
  18 C18           12.4368    -1.7531    -3.4917 C.2     
  19 S19           11.6287    -0.3661    -2.8931 S.3     
  20 N20           13.8064    -1.9851    -3.4250 N.am    
  21 C21           14.3238    -3.1179    -3.9404 C.2     
  22 C22           15.8079    -3.3693    -3.8682 C.3     
  23 O23           13.5950    -3.9348    -4.4623 O.2     
  24 C24            0.0663     5.4669     0.0470 C.ar    
  25 C25            0.1741     6.1613    -1.1421 C.ar    
  26 C26            0.4090     7.5287    -1.1268 C.ar    
  27 C27            0.5350     8.1948     0.0834 C.ar    
  28 C28            0.4263     7.4957     1.2701 C.ar    
  29 C29            0.1870     6.1342     1.2522 C.ar    
  30 O30            0.5160     8.2141    -2.2954 O.3     
  31 C31            0.7581     9.6194    -2.2034 C.3     
  32 F32            1.9616     9.8419    -1.5257 F       
  33 F33            0.8398    10.1637    -3.4896 F       
  34 F34           -0.2899    10.2285    -1.5050 F       
  35 C35           16.1246    -4.6951    -4.5108 C.ar    
  36 C36           16.3123    -4.7734    -5.8805 C.ar    
  37 C37           16.2334    -5.8316    -3.7326 C.ar    
  38 C38           16.5253    -7.0496    -4.3230 C.ar    
  39 C39           16.7077    -7.1288    -5.6929 C.ar    
  40 C40           16.6037    -5.9912    -6.4708 C.ar    
  41 F41           16.6325    -8.1607    -3.5619 F       
  42 F42           16.2106    -3.6613    -6.6409 F       
  43 H43            0.3138     1.4015     0.0774 H       
  44 H44           -0.7642     3.7216    -0.8577 H       
  45 H45           -0.7505     3.7001     0.9221 H       
  46 H46            1.4876    -0.7415     0.1456 H       
  47 H47            3.7036    -1.8749    -0.0785 H       
  48 H48            6.7322    -0.3356     0.3194 H       
  49 H49            5.9907    -1.7301    -0.5015 H       
  50 H50            6.0910    -0.5130    -2.6596 H       
  51 H51            6.8326     0.8814    -1.8387 H       
  52 H52            8.7432    -0.5407    -1.1490 H       
  53 H53            8.0017    -1.9351    -1.9698 H       
  54 H54            8.1021    -0.7181    -4.1279 H       
  55 H55            8.8436     0.6764    -3.3071 H       
  56 H56           14.3893    -1.3317    -3.0076 H       
  57 H57           16.3371    -2.5749    -4.3944 H       
  58 H58           16.1232    -3.3867    -2.8249 H       
  59 H59            0.0760     5.6403    -2.0830 H       
  60 H60            0.7183     9.2591     0.0979 H       
  61 H61            0.5243     8.0139     2.2126 H       
  62 H62            0.1024     5.5894     2.1809 H       
  63 H63           16.0911    -5.7698    -2.6638 H       
  64 H64           16.9357    -8.0788    -6.1533 H       
  65 H65           16.7460    -6.0529    -7.5396 H       
@<TRIPOS>BOND
   1    1    2 2
   2    2    3 am
   3    2    4 1
   4    3    5 1
   5    3   43 1
   6    4   24 1
   7    4   44 1
   8    4   45 1
   9    5    6 ar
  10    5    7 ar
  11    6   10 ar
  12    6   46 1
  13    7    8 ar
  14    8    9 ar
  15    9   10 ar
  16    9   11 1
  17   10   47 1
  18   11   12 1
  19   11   48 1
  20   11   49 1
  21   12   13 1
  22   12   50 1
  23   12   51 1
  24   13   14 1
  25   13   52 1
  26   13   53 1
  27   14   15 1
  28   14   54 1
  29   14   55 1
  30   15   16 2
  31   15   19 1
  32   16   17 1
  33   17   18 2
  34   18   19 1
  35   18   20 1
  36   20   21 am
  37   20   56 1
  38   21   22 1
  39   21   23 2
  40   22   35 1
  41   22   57 1
  42   22   58 1
  43   24   25 ar
  44   24   29 ar
  45   25   26 ar
  46   25   59 1
  47   26   27 ar
  48   26   30 1
  49   27   28 ar
  50   27   60 1
  51   28   29 ar
  52   28   61 1
  53   29   62 1
  54   30   31 1
  55   31   32 1
  56   31   33 1
  57   31   34 1
  58   35   36 ar
  59   35   37 ar
  60   36   42 1
  61   36   40 ar
  62   37   38 ar
  63   37   63 1
  64   38   39 ar
  65   38   41 1
  66   39   40 ar
  67   39   64 1
  68   40   65 1

#	End of record

