#	Name: ASD02508304
#	Creating user name:	WinNT
#	Creation time:	15. 06. 2019 20:24

#	Modifying user name:	WinNT
#	Modification time:	15. 06. 2019 20:24

#	Program:	/corina/corina34_cracker 3.40 0067  02.08.2006

@<TRIPOS>MOLECULE
ASD02508304
  48   51    0    0    0
SMALL
NO_CHARGES


@<TRIPOS>ATOM
   1 C1            -0.0167     1.3825     0.0096 C.ar    
   2 C2             0.0021    -0.0041     0.0020 C.ar    
   3 C3            -1.1783    -0.7238     0.0098 C.ar    
   4 C4            -2.3931    -0.0675     0.0254 C.ar    
   5 C5            -2.4265     1.3220     0.0332 C.ar    
   6 C6            -1.2449     2.0446     0.0303 C.ar    
   7 N7             1.2736     1.9149     0.0002 N.am    
   8 C8             2.2637     0.8349    -0.0151 C.3     
   9 C9             1.4426    -0.4648    -0.0142 C.3     
  10 S10            1.6329     3.5315     0.0054 S.o2    
  11 O11            2.9104     3.6085    -0.6121 O.2     
  12 O12            0.4955     4.1452    -0.5851 O.2     
  13 C13            1.7487     3.9637     1.7634 C.3     
  14 S14           -4.8550     1.4905     1.0722 S.o2    
  15 O15           -4.9624     0.0831     0.9082 O.2     
  16 O16           -5.9448     2.3812     0.8763 O.2     
  17 C17           -4.2839     1.7575     2.7176 C.ar    
  18 C18           -4.5310     2.9631     3.3464 C.ar    
  19 C19           -4.0820     3.1762     4.6413 C.ar    
  20 C20           -3.3863     2.1731     5.3054 C.ar    
  21 C21           -3.1411     0.9658     4.6683 C.ar    
  22 C22           -3.5943     0.7586     3.3793 C.ar    
  23 O23           -4.3260     4.3715     5.2448 O.3     
  24 C24           -4.1893     4.4130     6.6694 C.3     
  25 C25           -2.8786     3.7098     7.0474 C.3     
  26 O26           -2.9437     2.3583     6.5791 O.3     
  27 C27            3.1220     0.9196    -1.2788 C.3     
  28 N28           -3.6528     1.9903     0.0489 N.am    
  29 H29           -1.1501    -1.8034     0.0034 H       
  30 H30           -3.3139    -0.6317     0.0311 H       
  31 H31           -1.2743     3.1241     0.0367 H       
  32 H32            2.8923     0.8857     0.8740 H       
  33 H33            1.6636    -1.0537     0.8760 H       
  34 H34            1.6465    -1.0441    -0.9148 H       
  35 H35            1.9852     5.0231     1.8622 H       
  36 H36            0.7964     3.7570     2.2518 H       
  37 H37            2.5339     3.3708     2.2324 H       
  38 H38           -5.0740     3.7401     2.8289 H       
  39 H39           -2.5985     0.1855     5.1813 H       
  40 H40           -3.4021    -0.1822     2.8850 H       
  41 H41           -4.1606     5.4493     7.0059 H       
  42 H42           -5.0299     3.8980     7.1345 H       
  43 H43           -2.0384     4.2214     6.5779 H       
  44 H44           -2.7560     3.7181     8.1304 H       
  45 H45            3.6405     1.8781    -1.3023 H       
  46 H46            3.8530     0.1111    -1.2764 H       
  47 H47            2.4841     0.8300    -2.1580 H       
  48 H48           -3.8003     2.7471    -0.5396 H       
@<TRIPOS>BOND
   1    1    2 ar
   2    1    7 1
   3    1    6 ar
   4    2    3 ar
   5    2    9 1
   6    3    4 ar
   7    3   29 1
   8    4    5 ar
   9    4   30 1
  10    5    6 ar
  11    5   28 1
  12    6   31 1
  13    7    8 1
  14    7   10 am
  15    8    9 1
  16    8   27 1
  17    8   32 1
  18    9   33 1
  19    9   34 1
  20   10   11 2
  21   10   12 2
  22   10   13 1
  23   13   35 1
  24   13   36 1
  25   13   37 1
  26   14   15 2
  27   14   16 2
  28   14   17 1
  29   14   28 am
  30   17   18 ar
  31   17   22 ar
  32   18   19 ar
  33   18   38 1
  34   19   20 ar
  35   19   23 1
  36   20   21 ar
  37   20   26 1
  38   21   22 ar
  39   21   39 1
  40   22   40 1
  41   23   24 1
  42   24   25 1
  43   24   41 1
  44   24   42 1
  45   25   26 1
  46   25   43 1
  47   25   44 1
  48   27   45 1
  49   27   46 1
  50   27   47 1
  51   28   48 1

#	End of record

