#	Name: ASD03240616
#	Creating user name:	WinNT
#	Creation time:	15. 06. 2019 20:35

#	Modifying user name:	WinNT
#	Modification time:	15. 06. 2019 20:35

#	Program:	/corina/corina34_cracker 3.40 0067  02.08.2006

@<TRIPOS>MOLECULE
ASD03240616
  65   72    0    0    0
SMALL
NO_CHARGES


@<TRIPOS>ATOM
   1 C1            -0.0166     1.3755     0.0096 C.ar    
   2 C2             0.0021    -0.0041     0.0020 C.ar    
   3 N3             1.1422    -0.6683    -0.0054 N.ar    
   4 C4             2.3145    -0.0481    -0.0053 C.ar    
   5 C5             2.3702     1.3442    -0.0124 C.ar    
   6 C6             1.1860     2.0698     0.0018 C.ar    
   7 N7             3.4820    -0.8058     0.0229 N.pl3   
   8 C8             4.3589    -0.7190     1.1008 C.ar    
   9 C9             4.9948     0.4895     1.4045 C.ar    
  10 C10            4.7635     1.6837     0.5625 C.2     
  11 N11            3.5939     2.0276    -0.0512 N.pl3   
  12 C12            4.6047    -1.8385     1.8845 C.ar    
  13 C13            5.4642    -1.7528     2.9631 C.ar    
  14 C14            6.0847    -0.5545     3.2719 C.ar    
  15 C15            5.8554     0.5661     2.4993 C.ar    
  16 N16            5.6751     2.5942     0.2855 N.2     
  17 C17            5.1449     3.5399    -0.5055 C.2     
  18 C18            3.8223     3.2037    -0.7368 C.2     
  19 C19            2.8496     3.9535    -1.5547 C.ar    
  20 C20            2.7503     5.3415    -1.4304 C.ar    
  21 C21            2.0274     3.2794    -2.4611 C.ar    
  22 C22            1.1204     3.9867    -3.2222 C.ar    
  23 C23            1.0236     5.3608    -3.0897 C.ar    
  24 C24            1.8387     6.0358    -2.1980 C.ar    
  25 C25            5.8487     4.7302    -1.0354 C.ar    
  26 C26            0.0304     6.1266    -3.9253 C.3     
  27 C27            6.8094     5.3609    -0.2642 C.ar    
  28 C28            7.4713     6.4871    -0.7739 C.ar    
  29 C29            7.1501     6.9655    -2.0694 C.ar    
  30 C30            6.1684     6.3003    -2.8275 C.ar    
  31 C31            5.5409     5.2087    -2.3205 C.ar    
  32 N32           -1.0280     5.2718    -4.4793 N.3     
  33 C33           -0.4993     7.3980    -3.2413 C.3     
  34 C34           -0.4035     8.0822    -4.6152 C.3     
  35 C35            0.6841     7.0527    -4.9645 C.3     
  36 C36            8.4548     7.1587    -0.0221 C.ar    
  37 C37            9.0594     8.2493    -0.5798 C.ar    
  38 C38            8.6966     8.6667    -1.8582 C.ar    
  39 N39            7.7802     8.0392    -2.5551 N.ar    
  40 H40           -0.9556     1.9091     0.0170 H       
  41 H41           -0.9306    -0.5486     0.0025 H       
  42 H42            1.2002     3.1497     0.0061 H       
  43 H43            3.6864    -1.4004    -0.7157 H       
  44 H44            4.1235    -2.7768     1.6512 H       
  45 H45            5.6528    -2.6264     3.5694 H       
  46 H46            6.7505    -0.4963     4.1203 H       
  47 H47            6.3409     1.4998     2.7422 H       
  48 H48            3.3856     5.8695    -0.7347 H       
  49 H49            2.1022     2.2071    -2.5658 H       
  50 H50            0.4845     3.4670    -3.9235 H       
  51 H51            1.7575     7.1082    -2.0995 H       
  52 H52            7.0469     4.9892     0.7216 H       
  53 H53            5.9162     6.6571    -3.8152 H       
  54 H54            4.7890     4.7052    -2.9101 H       
  55 H55           -0.6365     4.4636    -4.9393 H       
  56 H56           -1.6836     4.9979    -3.7629 H       
  57 H57           -1.5202     7.3019    -2.8717 H       
  58 H58            0.1836     7.8114    -2.4991 H       
  59 H59           -1.3074     7.9833    -5.2162 H       
  60 H60           -0.0355     9.1071    -4.5679 H       
  61 H61            1.6905     7.3716    -4.6933 H       
  62 H62            0.6186     6.6778    -5.9859 H       
  63 H63            8.7232     6.8211     0.9680 H       
  64 H64            9.8175     8.7874    -0.0301 H       
  65 H65            9.1827     9.5307    -2.2866 H       
@<TRIPOS>BOND
   1    1    2 ar
   2    1    6 ar
   3    1   40 1
   4    2    3 ar
   5    2   41 1
   6    3    4 ar
   7    4    5 ar
   8    4    7 1
   9    5    6 ar
  10    5   11 1
  11    6   42 1
  12    7    8 1
  13    7   43 1
  14    8    9 ar
  15    8   12 ar
  16    9   10 1
  17    9   15 ar
  18   10   11 1
  19   10   16 2
  20   11   18 1
  21   12   13 ar
  22   12   44 1
  23   13   14 ar
  24   13   45 1
  25   14   15 ar
  26   14   46 1
  27   15   47 1
  28   16   17 1
  29   17   18 2
  30   17   25 1
  31   18   19 1
  32   19   20 ar
  33   19   21 ar
  34   20   24 ar
  35   20   48 1
  36   21   22 ar
  37   21   49 1
  38   22   23 ar
  39   22   50 1
  40   23   24 ar
  41   23   26 1
  42   24   51 1
  43   25   27 ar
  44   25   31 ar
  45   26   33 1
  46   26   32 1
  47   26   35 1
  48   27   28 ar
  49   27   52 1
  50   28   29 ar
  51   28   36 ar
  52   29   30 ar
  53   29   39 ar
  54   30   31 ar
  55   30   53 1
  56   31   54 1
  57   32   55 1
  58   32   56 1
  59   33   34 1
  60   33   57 1
  61   33   58 1
  62   34   35 1
  63   34   59 1
  64   34   60 1
  65   35   61 1
  66   35   62 1
  67   36   37 ar
  68   36   63 1
  69   37   38 ar
  70   37   64 1
  71   38   39 ar
  72   38   65 1

#	End of record

