#	Name: ASD01150280
#	Creating user name:	WinNT
#	Creation time:	15. 06. 2019 19:03

#	Modifying user name:	WinNT
#	Modification time:	15. 06. 2019 19:03

#	Program:	/corina/corina34_cracker 3.40 0067  02.08.2006

@<TRIPOS>MOLECULE
ASD01150280
  65   67    0    0    0
SMALL
NO_CHARGES


@<TRIPOS>ATOM
   1 C1            -0.0158     1.3124     0.0093 C.2     
   2 N2             0.0021    -0.0041     0.0020 N.2     
   3 C3            -1.2464    -0.4791     0.0114 C.2     
   4 C4            -2.1132     0.6062     0.0255 C.2     
   5 N5            -1.3045     1.7450     0.0298 N.pl3   
   6 N6             1.0957     2.1232     0.0030 N.3     
   7 C7             2.3292     1.3256    -0.0137 C.3     
   8 C8             1.0585     3.0588    -1.1289 C.3     
   9 C9            -1.7381     3.0770     0.0437 C.ar    
  10 N10           -1.6128    -1.8206     0.0073 N.am    
  11 C11           -3.5222     0.5664     0.0380 C.2     
  12 O12           -4.2301     1.7163     0.0505 O.3     
  13 O13           -4.1011    -0.5050     0.0375 O.2     
  14 C14           -5.6544     1.6012     0.0628 C.3     
  15 C15           -6.0934     0.8346     1.3120 C.3     
  16 C16           -6.2789     2.9980     0.0759 C.3     
  17 C17           -6.1160     0.8479    -1.1864 C.3     
  18 C18           -1.4635     3.8867     1.1378 C.ar    
  19 C19           -1.8923     5.1995     1.1485 C.ar    
  20 C20           -2.5944     5.7079     0.0711 C.ar    
  21 C21           -2.8694     4.9041    -1.0200 C.ar    
  22 C22           -2.4383     3.5920    -1.0392 C.ar    
  23 C23           -0.6645    -2.7781    -0.0069 C.2     
  24 C24           -1.0616    -4.2319    -0.0113 C.3     
  25 O25            0.5084    -2.4699    -0.0160 O.2     
  26 C26           -1.7851    -4.5510    -1.2942 C.ar    
  27 O27            0.1274    -5.0587     0.0923 O.3     
  28 C28           -3.1663    -4.5144    -1.3363 C.ar    
  29 C29           -3.8300    -4.8072    -2.5130 C.ar    
  30 C30           -3.1124    -5.1362    -3.6478 C.ar    
  31 C31           -1.7311    -5.1720    -3.6060 C.ar    
  32 C32           -1.0674    -4.8749    -2.4304 C.ar    
  33 C33           -0.0077    -6.2466     0.7027 C.2     
  34 C34            1.1829    -7.1590     0.8475 C.3     
  35 O35           -1.0838    -6.5842     1.1359 O.2     
  36 H36            2.3465     0.7019    -0.9074 H       
  37 H37            3.1923     1.9912    -0.0183 H       
  38 H38            2.3640     0.6917     0.8724 H       
  39 H39            0.1695     3.6850    -1.0537 H       
  40 H40            1.9485     3.6877    -1.1099 H       
  41 H41            1.0298     2.4979    -2.0631 H       
  42 H42           -2.5509    -2.0671     0.0146 H       
  43 H43           -5.7646     1.3713     2.2019 H       
  44 H44           -7.1798     0.7468     1.3213 H       
  45 H45           -5.6486    -0.1604     1.3027 H       
  46 H46           -5.9661     3.5441    -0.8141 H       
  47 H47           -7.3653     2.9102     0.0852 H       
  48 H48           -5.9501     3.5346     0.9658 H       
  49 H49           -5.6712    -0.1471    -1.1957 H       
  50 H50           -7.2024     0.7601    -1.1770 H       
  51 H51           -5.8033     1.3941    -2.0763 H       
  52 H52           -0.9155     3.4901     1.9797 H       
  53 H53           -1.6794     5.8296     1.9994 H       
  54 H54           -2.9290     6.7347     0.0820 H       
  55 H55           -3.4183     5.3038    -1.8599 H       
  56 H56           -2.6531     2.9649    -1.8917 H       
  57 H57           -1.7181    -4.4318     0.8355 H       
  58 H58           -3.7270    -4.2574    -0.4497 H       
  59 H59           -4.9091    -4.7793    -2.5457 H       
  60 H60           -3.6309    -5.3657    -4.5670 H       
  61 H61           -1.1705    -5.4293    -4.4925 H       
  62 H62            0.0118    -4.9028    -2.3977 H       
  63 H63            2.0581    -6.6882     0.3999 H       
  64 H64            1.3714    -7.3454     1.9048 H       
  65 H65            0.9804    -8.1036     0.3426 H       
@<TRIPOS>BOND
   1    1    2 2
   2    1    6 1
   3    1    5 1
   4    2    3 1
   5    3    4 2
   6    3   10 1
   7    4    5 1
   8    4   11 1
   9    5    9 1
  10    6    7 1
  11    6    8 1
  12    7   36 1
  13    7   37 1
  14    7   38 1
  15    8   39 1
  16    8   40 1
  17    8   41 1
  18    9   18 ar
  19    9   22 ar
  20   10   23 am
  21   10   42 1
  22   11   12 1
  23   11   13 2
  24   12   14 1
  25   14   15 1
  26   14   16 1
  27   14   17 1
  28   15   43 1
  29   15   44 1
  30   15   45 1
  31   16   46 1
  32   16   47 1
  33   16   48 1
  34   17   49 1
  35   17   50 1
  36   17   51 1
  37   18   19 ar
  38   18   52 1
  39   19   20 ar
  40   19   53 1
  41   20   21 ar
  42   20   54 1
  43   21   22 ar
  44   21   55 1
  45   22   56 1
  46   23   24 1
  47   23   25 2
  48   24   26 1
  49   24   27 1
  50   24   57 1
  51   26   28 ar
  52   26   32 ar
  53   27   33 1
  54   28   29 ar
  55   28   58 1
  56   29   30 ar
  57   29   59 1
  58   30   31 ar
  59   30   60 1
  60   31   32 ar
  61   31   61 1
  62   32   62 1
  63   33   34 1
  64   33   35 2
  65   34   63 1
  66   34   64 1
  67   34   65 1

#	End of record

