#	Name: ASD06640001
#	Creating user name:	WinNT
#	Creation time:	15. 06. 2019 21:07

#	Modifying user name:	WinNT
#	Modification time:	15. 06. 2019 21:07

#	Program:	/corina/corina34_cracker 3.40 0067  02.08.2006

@<TRIPOS>MOLECULE
ASD06640001
  36   38    0    0    0
SMALL
NO_CHARGES


@<TRIPOS>ATOM
   1 Cl1            0.0021    -0.0041     0.0020 Cl      
   2 C2            -0.0215     1.7317     0.0116 C.ar    
   3 C3             1.1705     2.4424     0.0040 C.ar    
   4 C4             1.1655     3.8146     0.0119 C.ar    
   5 C5            -0.0532     4.5251     0.0274 C.ar    
   6 C6            -1.2472     3.7973     0.0345 C.ar    
   7 C7            -1.2243     2.4052     0.0209 C.ar    
   8 S8            -2.5925     4.9350     0.0536 S.3     
   9 C9            -1.4680     6.2863     0.0508 C.2     
  10 N10           -0.2521     5.8582     0.0369 N.2     
  11 N11           -1.8350     7.6173     0.0619 N.pl3   
  12 N12           -3.1423     8.0992     0.0774 N.2     
  13 C13           -3.2365     9.3655     0.0854 C.2     
  14 C14           -1.8553     9.9809     0.0753 C.3     
  15 C15           -0.9098     8.7626     0.0656 C.3     
  16 O16           -0.0881     8.7527     1.2347 O.3     
  17 C17           -4.5300    10.1386     0.1017 C.3     
  18 C18           -5.7077     9.1620     0.1076 C.3     
  19 C19           -4.5859    11.0127     1.3561 C.3     
  20 C20           -4.6094    11.0259    -1.1422 C.3     
  21 H21            2.1105     1.9107    -0.0079 H       
  22 H22            2.1009     4.3544     0.0066 H       
  23 H23           -2.1514     1.8513     0.0261 H       
  24 H24           -1.7131    10.5876    -0.8189 H       
  25 H25           -1.6956    10.5776     0.9734 H       
  26 H26           -0.2975     8.7581    -0.8361 H       
  27 H27            0.5254     8.0065     1.2780 H       
  28 H28           -5.6511     8.5299     0.9937 H       
  29 H29           -6.6433     9.7212     0.1193 H       
  30 H30           -5.6679     8.5393    -0.7861 H       
  31 H31           -3.7469    11.7084     1.3519 H       
  32 H32           -5.5215    11.5719     1.3679 H       
  33 H33           -4.5293    10.3806     2.2423 H       
  34 H34           -4.5695    10.4032    -2.0359 H       
  35 H35           -5.5450    11.5851    -1.1305 H       
  36 H36           -3.7703    11.7216    -1.1464 H       
@<TRIPOS>BOND
   1    1    2 1
   2    2    3 ar
   3    2    7 ar
   4    3    4 ar
   5    3   21 1
   6    4    5 ar
   7    4   22 1
   8    5    6 ar
   9    5   10 1
  10    6    7 ar
  11    6    8 1
  12    7   23 1
  13    8    9 1
  14    9   10 2
  15    9   11 1
  16   11   12 1
  17   11   15 1
  18   12   13 2
  19   13   14 1
  20   13   17 1
  21   14   15 1
  22   14   24 1
  23   14   25 1
  24   15   16 1
  25   15   26 1
  26   16   27 1
  27   17   18 1
  28   17   19 1
  29   17   20 1
  30   18   28 1
  31   18   29 1
  32   18   30 1
  33   19   31 1
  34   19   32 1
  35   19   33 1
  36   20   34 1
  37   20   35 1
  38   20   36 1

#	End of record

