#	Name: ASD01230448
#	Creating user name:	WinNT
#	Creation time:	15. 06. 2019 19:14

#	Modifying user name:	WinNT
#	Modification time:	15. 06. 2019 19:14

#	Program:	/corina/corina34_cracker 3.40 0067  02.08.2006

@<TRIPOS>MOLECULE
ASD01230448
  39   40    0    0    0
SMALL
NO_CHARGES


@<TRIPOS>ATOM
   1 C1            -0.0168     1.3872     0.0097 C.ar    
   2 C2             0.0021    -0.0041     0.0020 C.ar    
   3 C3             1.2195    -0.6601    -0.0132 C.ar    
   4 C4             2.3819     0.0999    -0.0202 C.ar    
   5 C5             2.2894     1.4770    -0.0120 C.ar    
   6 N6             1.1137     2.0763     0.0026 N.ar    
   7 N7            -1.2334     2.0595     0.0191 N.pl3   
   8 C8            -1.2865    -0.7854     0.0107 C.3     
   9 O9            -0.9953    -2.1844     0.0003 O.3     
  10 C10           -2.0550    -3.0352     0.0063 C.ar    
  11 C11           -1.8452    -4.4066    -0.0032 C.ar    
  12 C12           -2.9240    -5.2693     0.0029 C.ar    
  13 C13           -4.2122    -4.7672     0.0184 C.ar    
  14 C14           -4.4240    -3.4009     0.0274 C.ar    
  15 C15           -3.3484    -2.5340     0.0276 C.ar    
  16 C16           -5.3873    -5.7107     0.0250 C.3     
  17 C17           -6.2241    -5.4743     1.2839 C.3     
  18 C18           -7.3449    -6.5134     1.3539 C.3     
  19 C19           -6.2489    -5.4608    -1.2144 C.3     
  20 H20            1.2652    -1.7391    -0.0191 H       
  21 H21            3.3485    -0.3817    -0.0317 H       
  22 H22            3.1908     2.0718    -0.0174 H       
  23 H23           -2.0642     1.5589     0.0203 H       
  24 H24           -1.2515     3.0293     0.0244 H       
  25 H25           -1.8547    -0.5392     0.9077 H       
  26 H26           -1.8724    -0.5297    -0.8722 H       
  27 H27           -0.8392    -4.7993    -0.0156 H       
  28 H28           -2.7612    -6.3369    -0.0048 H       
  29 H29           -5.4312    -3.0111     0.0387 H       
  30 H30           -3.5144    -1.4668     0.0395 H       
  31 H31           -5.0273    -6.7394     0.0159 H       
  32 H32           -5.5887    -5.5652     2.1649 H       
  33 H33           -6.6571    -4.4745     1.2499 H       
  34 H34           -7.9410    -6.3450     2.2507 H       
  35 H35           -7.9802    -6.4224     0.4729 H       
  36 H36           -6.9118    -7.5131     1.3879 H       
  37 H37           -7.0988    -6.1432    -1.2097 H       
  38 H38           -6.6089    -4.4320    -1.2053 H       
  39 H39           -5.6527    -5.6293    -2.1113 H       
@<TRIPOS>BOND
   1    1    2 ar
   2    1    6 ar
   3    1    7 1
   4    2    3 ar
   5    2    8 1
   6    3    4 ar
   7    3   20 1
   8    4    5 ar
   9    4   21 1
  10    5    6 ar
  11    5   22 1
  12    7   23 1
  13    7   24 1
  14    8    9 1
  15    8   25 1
  16    8   26 1
  17    9   10 1
  18   10   11 ar
  19   10   15 ar
  20   11   12 ar
  21   11   27 1
  22   12   13 ar
  23   12   28 1
  24   13   14 ar
  25   13   16 1
  26   14   15 ar
  27   14   29 1
  28   15   30 1
  29   16   17 1
  30   16   19 1
  31   16   31 1
  32   17   18 1
  33   17   32 1
  34   17   33 1
  35   18   34 1
  36   18   35 1
  37   18   36 1
  38   19   37 1
  39   19   38 1
  40   19   39 1

#	End of record

