#	Name: ASD00450018
#	Creating user name:	WinNT
#	Creation time:	15. 06. 2019 18:36

#	Modifying user name:	WinNT
#	Modification time:	15. 06. 2019 18:36

#	Program:	/corina/corina34_cracker 3.40 0067  02.08.2006

@<TRIPOS>MOLECULE
ASD00450018
  37   38    0    0    0
SMALL
NO_CHARGES


@<TRIPOS>ATOM
   1 C1             0.3811     2.2065     0.6243 C.ar    
   2 C2             0.8096     0.8899     0.7224 C.ar    
   3 C3             0.6243     0.0198    -0.3445 C.ar    
   4 C4             0.0147     0.4645    -1.5020 C.ar    
   5 C5            -0.4124     1.7746    -1.6015 C.ar    
   6 C6            -0.2304     2.6487    -0.5383 C.ar    
   7 O7            -0.6510     3.9369    -0.6376 O.3     
   8 C8             0.2730     4.8889    -0.9352 C.ar    
   9 N9             1.4275     0.4399     1.8938 N.pl3   
  10 C10            2.2118     1.2977     2.6314 C.2     
  11 N11            2.7228     0.8927     3.8420 N.pl3   
  12 N12            2.4700     2.4936     2.1822 N.2     
  13 C13           -0.1012     6.2236    -0.9957 C.ar    
  14 C14            1.5909     4.5260    -1.1728 C.ar    
  15 C15            2.5298     5.4924    -1.4746 C.ar    
  16 C16            2.1548     6.8277    -1.5408 C.ar    
  17 C17            0.8367     7.1909    -1.2979 C.ar    
  18 N18            3.1068     7.8086    -1.8470 N.pl3   
  19 C19            2.7342     8.9356    -2.5433 C.2     
  20 N20            3.6479     9.9383    -2.7682 N.pl3   
  21 N21            1.5151     9.0526    -2.9896 N.2     
  22 H22            0.5200     2.8838     1.4540 H       
  23 H23            0.9573    -1.0048    -0.2693 H       
  24 H24           -0.1278    -0.2133    -2.3306 H       
  25 H25           -0.8883     2.1194    -2.5077 H       
  26 H26            1.3034    -0.4765     2.1864 H       
  27 H27            2.5306     0.0026     4.1763 H       
  28 H28            3.2755     1.4971     4.3618 H       
  29 H29            3.0227     3.0980     2.7020 H       
  30 H30           -1.1263     6.5059    -0.8066 H       
  31 H31            1.8825     3.4873    -1.1212 H       
  32 H32            3.5558     5.2098    -1.6588 H       
  33 H33            0.5452     8.2297    -1.3452 H       
  34 H34            4.0287     7.6934    -1.5682 H       
  35 H35            4.5551     9.8512    -2.4361 H       
  36 H36            3.3853    10.7327    -3.2589 H       
  37 H37            1.2524     9.8470    -3.4803 H       
@<TRIPOS>BOND
   1    1    2 ar
   2    1    6 ar
   3    1   22 1
   4    2    3 ar
   5    2    9 1
   6    3    4 ar
   7    3   23 1
   8    4    5 ar
   9    4   24 1
  10    5    6 ar
  11    5   25 1
  12    6    7 1
  13    7    8 1
  14    8   14 ar
  15    8   13 ar
  16    9   10 1
  17    9   26 1
  18   10   11 1
  19   10   12 2
  20   11   27 1
  21   11   28 1
  22   12   29 1
  23   13   17 ar
  24   13   30 1
  25   14   15 ar
  26   14   31 1
  27   15   16 ar
  28   15   32 1
  29   16   17 ar
  30   16   18 1
  31   17   33 1
  32   18   19 1
  33   18   34 1
  34   19   20 1
  35   19   21 2
  36   20   35 1
  37   20   36 1
  38   21   37 1

#	End of record

