#	Name: ASD01882868
#	Creating user name:	WinNT
#	Creation time:	15. 06. 2019 19:45

#	Modifying user name:	WinNT
#	Modification time:	15. 06. 2019 19:45

#	Program:	/corina/corina34_cracker 3.40 0067  02.08.2006

@<TRIPOS>MOLECULE
ASD01882868
  35   36    0    0    0
SMALL
NO_CHARGES


@<TRIPOS>ATOM
   1 C1            -0.0143     1.3812     0.0868 C.ar    
   2 C2             0.0816     0.0677     0.5227 C.ar    
   3 C3             1.2854    -0.6036     0.4294 C.ar    
   4 C4             2.3940     0.0325    -0.0980 C.ar    
   5 C5             2.3009     1.3416    -0.5332 C.ar    
   6 C6             1.0995     2.0173    -0.4420 C.ar    
   7 O7            -1.1988     2.0420     0.1723 O.3     
   8 C8             3.5113     2.0320    -1.1070 C.3     
   9 C9             1.3904    -2.0303     0.9033 C.3     
  10 C10            3.7060    -0.7021    -0.1981 C.3     
  11 C11            4.2490    -0.5841    -1.6237 C.3     
  12 C12            5.5811    -1.3298    -1.7254 C.3     
  13 C13            6.5841    -0.7182    -0.7452 C.3     
  14 C14            6.0411    -0.8362     0.6803 C.3     
  15 C15            4.7091    -0.0905     0.7820 C.3     
  16 H16           -0.7839    -0.4295     0.9351 H       
  17 H17            1.0272     3.0397    -0.7824 H       
  18 H18           -1.3248     2.5172     1.0050 H       
  19 H19            3.5163     1.9156    -2.1908 H       
  20 H20            3.4782     3.0921    -0.8555 H       
  21 H21            4.4150     1.5876    -0.6897 H       
  22 H22            1.2720    -2.7046     0.0550 H       
  23 H23            2.3667    -2.1902     1.3609 H       
  24 H24            0.6086    -2.2281     1.6366 H       
  25 H25            3.5535    -1.7532     0.0467 H       
  26 H26            3.5344    -1.0198    -2.3219 H       
  27 H27            4.4015     0.4671    -1.8685 H       
  28 H28            5.4286    -2.3810    -1.4805 H       
  29 H29            5.9680    -1.2457    -2.7409 H       
  30 H30            7.5331    -1.2495    -0.8177 H       
  31 H31            6.7366     0.3329    -0.9901 H       
  32 H32            5.8886    -1.8874     0.9251 H       
  33 H33            6.7557    -0.4005     1.3786 H       
  34 H34            4.8615     0.9607     0.5372 H       
  35 H35            4.3222    -0.1746     1.7976 H       
@<TRIPOS>BOND
   1    1    2 ar
   2    1    6 ar
   3    1    7 1
   4    2    3 ar
   5    2   16 1
   6    3    4 ar
   7    3    9 1
   8    4    5 ar
   9    4   10 1
  10    5    6 ar
  11    5    8 1
  12    6   17 1
  13    7   18 1
  14    8   19 1
  15    8   20 1
  16    8   21 1
  17    9   22 1
  18    9   23 1
  19    9   24 1
  20   10   11 1
  21   10   15 1
  22   10   25 1
  23   11   12 1
  24   11   26 1
  25   11   27 1
  26   12   13 1
  27   12   28 1
  28   12   29 1
  29   13   14 1
  30   13   30 1
  31   13   31 1
  32   14   15 1
  33   14   32 1
  34   14   33 1
  35   15   34 1
  36   15   35 1

#	End of record

