#	Name: ASD07300909
#	Creating user name:	WinNT
#	Creation time:	15. 06. 2019 21:10

#	Modifying user name:	WinNT
#	Modification time:	15. 06. 2019 21:10

#	Program:	/corina/corina34_cracker 3.40 0067  02.08.2006

@<TRIPOS>MOLECULE
ASD07300909
  49   53    0    0    0
SMALL
NO_CHARGES


@<TRIPOS>ATOM
   1 N1             0.1085     1.3382    -0.0151 N.am    
   2 C2             0.0635    -0.0154    -0.0985 C.2     
   3 N3             1.1274    -0.7549    -0.2136 N.2     
   4 C4             2.3590    -0.2229    -0.2588 C.2     
   5 C5             2.5057     1.1709    -0.1798 C.2     
   6 C6             1.2972     1.9849    -0.0503 C.2     
   7 N7             3.6104    -0.7389    -0.3717 N.pl3   
   8 N8             4.5258     0.3210    -0.3632 N.2     
   9 C9             3.8832     1.4507    -0.2504 C.2     
  10 O10            1.3582     3.1995     0.0224 O.2     
  11 C11            3.9452    -2.1608    -0.4829 C.3     
  12 C12            4.5632    -2.4334    -1.8558 C.3     
  13 C13            4.9129    -3.9184    -1.9719 C.3     
  14 C14            5.9148    -4.2934    -0.8781 C.3     
  15 C15            5.2968    -4.0208     0.4948 C.3     
  16 C16            4.9471    -2.5359     0.6109 C.3     
  17 C17           -1.2816    -0.6935    -0.0552 C.3     
  18 C18           -1.2972    -2.0748    -0.7309 C.3     
  19 C19           -2.1961    -2.5432     0.4256 C.3     
  20 C20           -1.5605    -1.4250     1.2684 C.3     
  21 C21           -0.3122    -1.8529     1.9962 C.2     
  22 C22            0.3320    -2.9906     1.7194 C.2     
  23 S23            1.7247    -3.1003     2.7932 S.3     
  24 C24            1.3023    -1.6054     3.5075 C.2     
  25 N25            0.2368    -1.1332     2.9540 N.2     
  26 C26            2.0675    -0.9335     4.6184 C.3     
  27 F27            6.2345    -5.6512    -0.9842 F       
  28 F28            7.0761    -3.5278    -1.0270 F       
  29 H29           -0.7147     1.8448     0.0660 H       
  30 H30            4.3315     2.4326    -0.2169 H       
  31 H31            3.0403    -2.7573    -0.3669 H       
  32 H32            3.8494    -2.1662    -2.6350 H       
  33 H33            5.4680    -1.8369    -1.9718 H       
  34 H34            4.0080    -4.5149    -1.8558 H       
  35 H35            5.3531    -4.1126    -2.9499 H       
  36 H36            4.3919    -4.6173     0.6108 H       
  37 H37            6.0105    -4.2880     1.2741 H       
  38 H38            5.8520    -1.9393     0.4948 H       
  39 H39            4.5068    -2.3417     1.5889 H       
  40 H40           -2.0947    -0.0418    -0.3752 H       
  41 H41           -1.7947    -2.0810    -1.7007 H       
  42 H42           -0.3223    -2.5620    -0.7511 H       
  43 H43           -3.2599    -2.3978     0.2381 H       
  44 H44           -1.9614    -3.5461     0.7824 H       
  45 H45           -2.2706    -0.9065     1.9126 H       
  46 H46            0.0489    -3.7149     0.9700 H       
  47 H47            2.9735    -1.5012     4.8306 H       
  48 H48            2.3357     0.0784     4.3145 H       
  49 H49            1.4469    -0.8917     5.5135 H       
@<TRIPOS>BOND
   1    1    2 1
   2    1    6 am
   3    1   29 1
   4    2    3 2
   5    2   17 1
   6    3    4 1
   7    4    5 2
   8    4    7 1
   9    5    6 1
  10    5    9 1
  11    6   10 2
  12    7    8 1
  13    7   11 1
  14    8    9 2
  15    9   30 1
  16   11   12 1
  17   11   16 1
  18   11   31 1
  19   12   13 1
  20   12   32 1
  21   12   33 1
  22   13   14 1
  23   13   34 1
  24   13   35 1
  25   14   15 1
  26   14   27 1
  27   14   28 1
  28   15   16 1
  29   15   36 1
  30   15   37 1
  31   16   38 1
  32   16   39 1
  33   17   18 1
  34   17   20 1
  35   17   40 1
  36   18   19 1
  37   18   41 1
  38   18   42 1
  39   19   20 1
  40   19   43 1
  41   19   44 1
  42   20   21 1
  43   20   45 1
  44   21   22 2
  45   21   25 1
  46   22   23 1
  47   22   46 1
  48   23   24 1
  49   24   25 2
  50   24   26 1
  51   26   47 1
  52   26   48 1
  53   26   49 1

#	End of record

