#	Name: ASD04750012
#	Creating user name:	WinNT
#	Creation time:	15. 06. 2019 20:52

#	Modifying user name:	WinNT
#	Modification time:	15. 06. 2019 20:52

#	Program:	/corina/corina34_cracker 3.40 0067  02.08.2006

@<TRIPOS>MOLECULE
ASD04750012
  49   52    0    0    0
SMALL
NO_CHARGES


@<TRIPOS>ATOM
   1 C1             0.0209     2.7921    -3.2342 C.ar    
   2 C2            -0.5522     1.5663    -2.9528 C.ar    
   3 C3             0.1509     0.6289    -2.2220 C.ar    
   4 C4             1.4300     0.9128    -1.7692 C.ar    
   5 C5             2.0020     2.1363    -2.0500 C.ar    
   6 C6             1.2952     3.0763    -2.7837 C.ar    
   7 C7             2.3892     0.0702    -0.9650 C.3     
   8 C8             3.6420     0.8880    -0.7598 C.2     
   9 C9             3.3869     2.2041    -1.4548 C.3     
  10 C10            4.7370     0.5261    -0.1060 C.2     
  11 C11            5.8148     1.5093     0.1316 C.ar    
  12 C12            5.5000     2.8345     0.4348 C.ar    
  13 C13            7.1514     1.1150     0.0593 C.ar    
  14 C14            8.1527     2.0377     0.2822 C.ar    
  15 C15            7.8340     3.3513     0.5767 C.ar    
  16 C16            6.5108     3.7474     0.6555 C.ar    
  17 O17            1.8082    -0.2543     0.2996 O.3     
  18 N18            4.3786     2.4074    -2.5193 N.3     
  19 C19            4.2899     1.3461    -3.5311 C.3     
  20 C20            4.1796     1.9750    -4.9215 C.3     
  21 C21            4.0871     0.8696    -5.9753 C.3     
  22 C22            5.3411    -0.0045    -5.9089 C.3     
  23 C23            5.4514    -0.6334    -4.5185 C.3     
  24 C24            5.5438     0.4720    -3.4647 C.3     
  25 H25           -0.5253     3.5251    -3.8094 H       
  26 H26           -1.5486     1.3420    -3.3038 H       
  27 H27           -0.2975    -0.3287    -2.0021 H       
  28 H28            1.7425     4.0343    -3.0039 H       
  29 H29            2.6278    -0.8427    -1.5107 H       
  30 H30            3.4410     3.0203    -0.7344 H       
  31 H31            4.8416    -0.4871     0.2529 H       
  32 H32            4.4674     3.1449     0.4962 H       
  33 H33            7.4015     0.0898    -0.1702 H       
  34 H34            9.1876     1.7337     0.2269 H       
  35 H35            8.6215     4.0697     0.7504 H       
  36 H36            6.2685     4.7743     0.8858 H       
  37 H37            0.9930    -0.7706     0.2370 H       
  38 H38            4.2752     3.3183    -2.9407 H       
  39 H39            3.4092     0.7333    -3.3386 H       
  40 H40            3.2862     2.5977    -4.9688 H       
  41 H41            5.0602     2.5877    -5.1140 H       
  42 H42            3.2065     0.2568    -5.7828 H       
  43 H43            4.0085     1.3176    -6.9659 H       
  44 H44            5.2752    -0.7920    -6.6597 H       
  45 H45            6.2217     0.6083    -6.1014 H       
  46 H46            4.5707    -1.2462    -4.3260 H       
  47 H47            6.3447    -1.2561    -4.4712 H       
  48 H48            6.4245     1.0848    -3.6572 H       
  49 H49            5.6224     0.0239    -2.4742 H       
@<TRIPOS>BOND
   1    1    2 ar
   2    1    6 ar
   3    1   25 1
   4    2    3 ar
   5    2   26 1
   6    3    4 ar
   7    3   27 1
   8    4    5 ar
   9    4    7 1
  10    5    6 ar
  11    5    9 1
  12    6   28 1
  13    7    8 1
  14    7   17 1
  15    7   29 1
  16    8    9 1
  17    8   10 2
  18    9   18 1
  19    9   30 1
  20   10   11 1
  21   10   31 1
  22   11   12 ar
  23   11   13 ar
  24   12   16 ar
  25   12   32 1
  26   13   14 ar
  27   13   33 1
  28   14   15 ar
  29   14   34 1
  30   15   16 ar
  31   15   35 1
  32   16   36 1
  33   17   37 1
  34   18   19 1
  35   18   38 1
  36   19   20 1
  37   19   24 1
  38   19   39 1
  39   20   21 1
  40   20   40 1
  41   20   41 1
  42   21   22 1
  43   21   42 1
  44   21   43 1
  45   22   23 1
  46   22   44 1
  47   22   45 1
  48   23   24 1
  49   23   46 1
  50   23   47 1
  51   24   48 1
  52   24   49 1

#	End of record

