#	Name: ASD08070272
#	Creating user name:	WinNT
#	Creation time:	15. 06. 2019 21:14

#	Modifying user name:	WinNT
#	Modification time:	15. 06. 2019 21:14

#	Program:	/corina/corina34_cracker 3.40 0067  02.08.2006

@<TRIPOS>MOLECULE
ASD08070272
  43   44    0    0    0
SMALL
NO_CHARGES


@<TRIPOS>ATOM
   1 C1            -0.0179     1.4718     0.0101 C.2     
   2 C2             0.0021    -0.0041     0.0020 C.ar    
   3 C3             1.2206    -0.6881    -0.0133 C.ar    
   4 C4             1.2351    -2.0649    -0.0209 C.ar    
   5 C5             0.0396    -2.7744    -0.0138 C.ar    
   6 C6            -1.1742    -2.0979     0.0014 C.ar    
   7 C7            -1.1971    -0.7209     0.0154 C.ar    
   8 O8             1.0266     2.0940     0.0035 O.2     
   9 N9            -1.1942     2.1298     0.0193 N.am    
  10 C10            2.5485    -2.8035    -0.0374 C.3     
  11 C11           -1.2140     3.5946     0.0273 C.3     
  12 C12           -1.0884     4.0984     1.4665 C.3     
  13 C13           -2.5113     4.0826    -0.5643 C.ar    
  14 C14           -2.5171     5.1826    -1.4020 C.ar    
  15 C15           -3.7049     5.6320    -1.9457 C.ar    
  16 C16           -4.8926     4.9785    -1.6505 C.ar    
  17 C17           -4.8840     3.8751    -0.8097 C.ar    
  18 C18           -3.6928     3.4262    -0.2731 C.ar    
  19 O19           -6.0625     5.4189    -2.1837 O.3     
  20 C20           -7.2461     4.6975    -1.8361 C.3     
  21 O21            0.0580    -4.1314    -0.0222 O.3     
  22 C22           -1.2062    -4.7974    -0.0142 C.3     
  23 H23            2.1498    -0.1376    -0.0195 H       
  24 H24           -2.1008    -2.6527     0.0069 H       
  25 H25           -2.1407    -0.1959     0.0317 H       
  26 H26           -2.0275     1.6334     0.0205 H       
  27 H27            2.8750    -2.9872     0.9862 H       
  28 H28            2.4240    -3.7546    -0.5552 H       
  29 H29            3.2965    -2.2031    -0.5551 H       
  30 H30           -0.3800     3.9725    -0.5640 H       
  31 H31           -0.1502     3.7454     1.8945 H       
  32 H32           -1.1032     5.1883     1.4725 H       
  33 H33           -1.9224     3.7205     2.0579 H       
  34 H34           -1.5923     5.6912    -1.6312 H       
  35 H35           -3.7090     6.4915    -2.5996 H       
  36 H36           -5.8073     3.3647    -0.5783 H       
  37 H37           -3.6850     2.5644     0.3777 H       
  38 H38           -7.1483     3.6614    -2.1600 H       
  39 H39           -7.3865     4.7288    -0.7557 H       
  40 H40           -8.1062     5.1522    -2.3277 H       
  41 H41           -1.7587    -4.5175     0.8828 H       
  42 H42           -1.7756    -4.5067    -0.8970 H       
  43 H43           -1.0488    -5.8759    -0.0222 H       
@<TRIPOS>BOND
   1    1    2 1
   2    1    8 2
   3    1    9 am
   4    2    3 ar
   5    2    7 ar
   6    3    4 ar
   7    3   23 1
   8    4    5 ar
   9    4   10 1
  10    5    6 ar
  11    5   21 1
  12    6    7 ar
  13    6   24 1
  14    7   25 1
  15    9   11 1
  16    9   26 1
  17   10   27 1
  18   10   28 1
  19   10   29 1
  20   11   12 1
  21   11   13 1
  22   11   30 1
  23   12   31 1
  24   12   32 1
  25   12   33 1
  26   13   14 ar
  27   13   18 ar
  28   14   15 ar
  29   14   34 1
  30   15   16 ar
  31   15   35 1
  32   16   17 ar
  33   16   19 1
  34   17   18 ar
  35   17   36 1
  36   18   37 1
  37   19   20 1
  38   20   38 1
  39   20   39 1
  40   20   40 1
  41   21   22 1
  42   22   41 1
  43   22   42 1
  44   22   43 1

#	End of record

