#	Name: ASD08070018
#	Creating user name:	WinNT
#	Creation time:	15. 06. 2019 21:14

#	Modifying user name:	WinNT
#	Modification time:	15. 06. 2019 21:14

#	Program:	/corina/corina34_cracker 3.40 0067  02.08.2006

@<TRIPOS>MOLECULE
ASD08070018
  48   50    0    0    0
SMALL
NO_CHARGES


@<TRIPOS>ATOM
   1 C1            -0.0168     1.3882     0.0097 C.ar    
   2 C2             0.0021    -0.0041     0.0020 C.ar    
   3 C3             1.2049    -0.6820    -0.0126 C.ar    
   4 C4             2.4017     0.0384    -0.0201 C.ar    
   5 C5             2.3798     1.4455    -0.0129 C.ar    
   6 C6             1.1581     2.1075     0.0023 C.ar    
   7 C7             3.8154    -0.3365    -0.0347 C.2     
   8 C8             4.5136     0.8284    -0.0352 C.2     
   9 O9             3.6587     1.8723    -0.0222 O.3     
  10 C10            5.9794     0.9358    -0.0474 C.2     
  11 N11            6.5662     2.1491    -0.0466 N.am    
  12 O12            6.6629    -0.0705    -0.0582 O.2     
  13 C13            8.0272     2.2561    -0.0588 C.3     
  14 O14           -1.1672    -0.6980     0.0094 O.3     
  15 C15           -2.3749     0.0658     0.0250 C.3     
  16 C16            8.5575     2.1610     1.3732 C.3     
  17 C17           10.0834     2.2728     1.3605 C.3     
  18 C18           10.4912     3.6168     0.7538 C.3     
  19 C19            9.9610     3.7119    -0.6782 C.3     
  20 C20            8.4351     3.6001    -0.6655 C.3     
  21 C21            7.9128     3.6938    -2.0760 C.2     
  22 O22            8.1513     4.7931    -2.8084 O.3     
  23 C23            7.6180     4.8140    -4.1587 C.3     
  24 C24            7.9883     6.1366    -4.8329 C.3     
  25 O25            7.2793     2.7793    -2.5476 O.2     
  26 H26           -0.9625     1.9097     0.0170 H       
  27 H27            1.2203    -1.7619    -0.0178 H       
  28 H28            1.1296     3.1872     0.0080 H       
  29 H29            4.2217    -1.3371    -0.0429 H       
  30 H30            6.0212     2.9514    -0.0380 H       
  31 H31            8.4459     1.4459    -0.6558 H       
  32 H32           -2.3988     0.6895     0.9186 H       
  33 H33           -2.4157     0.6990    -0.8612 H       
  34 H34           -3.2312    -0.6085     0.0295 H       
  35 H35            8.1388     2.9712     1.9703 H       
  36 H36            8.2669     1.2035     1.8055 H       
  37 H37           10.4611     2.2051     2.3807 H       
  38 H38           10.5021     1.4626     0.7635 H       
  39 H39           10.0726     4.4270     1.3509 H       
  40 H40           11.5783     3.6965     0.7448 H       
  41 H41           10.2516     4.6694    -1.1104 H       
  42 H42           10.3797     2.9017    -1.2752 H       
  43 H43            8.0164     4.4103    -0.0685 H       
  44 H44            8.0388     3.9855    -4.7285 H       
  45 H45            6.5330     4.7160    -4.1224 H       
  46 H46            7.5676     6.9651    -4.2631 H       
  47 H47            9.0733     6.2346    -4.8692 H       
  48 H48            7.5880     6.1524    -5.8465 H       
@<TRIPOS>BOND
   1    1    2 ar
   2    1    6 ar
   3    1   26 1
   4    2    3 ar
   5    2   14 1
   6    3    4 ar
   7    3   27 1
   8    4    5 ar
   9    4    7 1
  10    5    6 ar
  11    5    9 1
  12    6   28 1
  13    7    8 2
  14    7   29 1
  15    8    9 1
  16    8   10 1
  17   10   11 am
  18   10   12 2
  19   11   13 1
  20   11   30 1
  21   13   16 1
  22   13   20 1
  23   13   31 1
  24   14   15 1
  25   15   32 1
  26   15   33 1
  27   15   34 1
  28   16   17 1
  29   16   35 1
  30   16   36 1
  31   17   18 1
  32   17   37 1
  33   17   38 1
  34   18   19 1
  35   18   39 1
  36   18   40 1
  37   19   20 1
  38   19   41 1
  39   19   42 1
  40   20   21 1
  41   20   43 1
  42   21   22 1
  43   21   25 2
  44   22   23 1
  45   23   24 1
  46   23   44 1
  47   23   45 1
  48   24   46 1
  49   24   47 1
  50   24   48 1

#	End of record

