#	Name: ASD01813668
#	Creating user name:	WinNT
#	Creation time:	15. 06. 2019 19:30

#	Modifying user name:	WinNT
#	Modification time:	15. 06. 2019 19:30

#	Program:	/corina/corina34_cracker 3.40 0067  02.08.2006

@<TRIPOS>MOLECULE
ASD01813668
  43   46    0    0    0
SMALL
NO_CHARGES


@<TRIPOS>ATOM
   1 C1             0.0987     1.4753     0.3554 C.ar    
   2 C2             0.0803     0.0890     0.3474 C.ar    
   3 C3             1.2503    -0.6314     0.2175 C.ar    
   4 C4             2.4682     0.0345     0.0920 C.ar    
   5 C5             2.4853     1.4397     0.0998 C.ar    
   6 C6             1.2932     2.1563     0.2325 C.ar    
   7 N7             3.6440    -0.6744    -0.0375 N.pl3   
   8 C8             4.8384    -0.0818    -0.1600 C.2     
   9 C9             4.9810     1.2911    -0.1653 C.2     
  10 C10            3.7795     2.1315    -0.0338 C.2     
  11 O11            3.8524     3.3479    -0.0334 O.2     
  12 C12            6.3100     1.9036    -0.3010 C.2     
  13 O13            6.4364     3.2457    -0.3048 O.3     
  14 O14            7.2953     1.1999    -0.4098 O.2     
  15 C15            3.5837    -2.1382    -0.0406 C.3     
  16 C16            3.4403    -2.6321    -1.4571 C.ar    
  17 C17            4.5552    -2.7792    -2.2610 C.ar    
  18 N18            4.4430    -3.2101    -3.5012 N.ar    
  19 C19            3.2644    -3.5188    -4.0262 C.ar    
  20 C20            2.0990    -3.3947    -3.2722 C.ar    
  21 C21            2.1881    -2.9490    -1.9652 C.ar    
  22 F22            1.2151    -1.9819     0.2124 F       
  23 F23            1.3093     3.5072     0.2396 F       
  24 C24            3.1864    -3.9996    -5.4271 C.ar    
  25 C25            4.3472    -4.1262    -6.1882 C.ar    
  26 C26            4.2701    -4.5742    -7.4907 C.ar    
  27 C27            3.0410    -4.8982    -8.0425 C.ar    
  28 C28            1.8844    -4.7738    -7.2894 C.ar    
  29 C29            1.9528    -4.3316    -5.9844 C.ar    
  30 F30            2.9699    -5.3361    -9.3185 F       
  31 H31           -0.8258     2.0247     0.4538 H       
  32 H32           -0.8601    -0.4331     0.4443 H       
  33 H33            5.7196    -0.6986    -0.2576 H       
  34 H34            7.3306     3.6022    -0.3965 H       
  35 H35            4.4990    -2.5405     0.3935 H       
  36 H36            2.7272    -2.4678     0.5476 H       
  37 H37            5.5314    -2.5373    -1.8674 H       
  38 H38            1.1401    -3.6461    -3.7009 H       
  39 H39            1.3023    -2.8427    -1.3565 H       
  40 H40            5.3056    -3.8736    -5.7591 H       
  41 H41            5.1689    -4.6723    -8.0813 H       
  42 H42            0.9285    -5.0271    -7.7235 H       
  43 H43            1.0509    -4.2353    -5.3981 H       
@<TRIPOS>BOND
   1    1    2 ar
   2    1    6 ar
   3    1   31 1
   4    2    3 ar
   5    2   32 1
   6    3   22 1
   7    3    4 ar
   8    4    5 ar
   9    4    7 1
  10    5    6 ar
  11    5   10 1
  12    6   23 1
  13    7    8 1
  14    7   15 1
  15    8    9 2
  16    8   33 1
  17    9   10 1
  18    9   12 1
  19   10   11 2
  20   12   13 1
  21   12   14 2
  22   13   34 1
  23   15   16 1
  24   15   35 1
  25   15   36 1
  26   16   17 ar
  27   16   21 ar
  28   17   18 ar
  29   17   37 1
  30   18   19 ar
  31   19   20 ar
  32   19   24 1
  33   20   21 ar
  34   20   38 1
  35   21   39 1
  36   24   25 ar
  37   24   29 ar
  38   25   26 ar
  39   25   40 1
  40   26   27 ar
  41   26   41 1
  42   27   28 ar
  43   27   30 1
  44   28   29 ar
  45   28   42 1
  46   29   43 1

#	End of record

