#	Name: ASD03180009
#	Creating user name:	WinNT
#	Creation time:	15. 06. 2019 20:33

#	Modifying user name:	WinNT
#	Modification time:	15. 06. 2019 20:33

#	Program:	/corina/corina34_cracker 3.40 0067  02.08.2006

@<TRIPOS>MOLECULE
ASD03180009
  43   46    0    0    0
SMALL
NO_CHARGES


@<TRIPOS>ATOM
   1 C1            -0.0212     1.6160     0.6912 C.ar    
   2 C2            -0.0340     0.2664     0.9921 C.ar    
   3 C3             1.1201    -0.4846     0.8674 C.ar    
   4 C4             2.2941     0.1143     0.4400 C.ar    
   5 C5             2.3076     1.4743     0.1361 C.ar    
   6 C6             1.1454     2.2213     0.2637 C.ar    
   7 O7             3.4301    -0.6228     0.3177 O.3     
   8 N8             3.4908     2.0851    -0.2959 N.pl3   
   9 C9             3.7261     3.4203    -0.0086 C.2     
  10 C10            4.7929     5.3900    -0.0643 C.2     
  11 N11            4.7308     4.1146    -0.4460 N.2     
  12 S12            2.7036     4.4385     1.0004 S.3     
  13 C13            3.7907     5.7994     0.7351 C.2     
  14 C14            5.8848     6.2922    -0.4908 C.2     
  15 S15            6.0641     7.9877    -0.0461 S.3     
  16 C16            7.5006     8.0878    -0.9674 C.2     
  17 N17            7.7611     6.9505    -1.5188 N.2     
  18 C18            6.9251     5.9618    -1.2856 C.2     
  19 C19            8.3432     9.3285    -1.1148 C.3     
  20 C20            7.1102     4.5808    -1.8598 C.3     
  21 C21            3.3629    -1.9500     0.6008 C.ar    
  22 C22            2.8328    -2.8331    -0.3291 C.ar    
  23 C23            2.7661    -4.1820    -0.0389 C.ar    
  24 C24            3.2265    -4.6524     1.1771 C.ar    
  25 C25            3.7547    -3.7746     2.1057 C.ar    
  26 C26            3.8294    -2.4256     1.8181 C.ar    
  27 H27           -0.9262     2.1976     0.7861 H       
  28 H28           -0.9480    -0.2022     1.3258 H       
  29 H29            1.1067    -1.5384     1.1037 H       
  30 H30            1.1523     3.2755     0.0290 H       
  31 H31            4.1459     1.5739    -0.7963 H       
  32 H32            3.6722     6.7924     1.1429 H       
  33 H33            9.0945     9.3533    -0.3255 H       
  34 H34            8.8372     9.3189    -2.0864 H       
  35 H35            7.7075    10.2106    -1.0392 H       
  36 H36            6.6087     4.5186    -2.8255 H       
  37 H37            8.1738     4.3807    -1.9891 H       
  38 H38            6.6820     3.8442    -1.1799 H       
  39 H39            2.4724    -2.4661    -1.2787 H       
  40 H40            2.3536    -4.8697    -0.7623 H       
  41 H41            3.1731    -5.7074     1.4021 H       
  42 H42            4.1130    -4.1446     3.0550 H       
  43 H43            4.2465    -1.7410     2.5418 H       
@<TRIPOS>BOND
   1    1    2 ar
   2    1    6 ar
   3    1   27 1
   4    2    3 ar
   5    2   28 1
   6    3    4 ar
   7    3   29 1
   8    4    5 ar
   9    4    7 1
  10    5    6 ar
  11    5    8 1
  12    6   30 1
  13    7   21 1
  14    8    9 1
  15    8   31 1
  16    9   12 1
  17    9   11 2
  18   10   11 1
  19   10   13 2
  20   10   14 1
  21   12   13 1
  22   13   32 1
  23   14   15 1
  24   14   18 2
  25   15   16 1
  26   16   17 2
  27   16   19 1
  28   17   18 1
  29   18   20 1
  30   19   33 1
  31   19   34 1
  32   19   35 1
  33   20   36 1
  34   20   37 1
  35   20   38 1
  36   21   22 ar
  37   21   26 ar
  38   22   23 ar
  39   22   39 1
  40   23   24 ar
  41   23   40 1
  42   24   25 ar
  43   24   41 1
  44   25   26 ar
  45   25   42 1
  46   26   43 1

#	End of record

