#	Name: ASD03331651
#	Creating user name:	WinNT
#	Creation time:	15. 06. 2019 20:39

#	Modifying user name:	WinNT
#	Modification time:	15. 06. 2019 20:39

#	Program:	/corina/corina34_cracker 3.40 0067  02.08.2006

@<TRIPOS>MOLECULE
ASD03331651
  55   58    0    0    0
SMALL
NO_CHARGES


@<TRIPOS>ATOM
   1 C1             2.0466     0.2633    -0.4181 C.ar    
   2 C2             1.0350    -0.4384     0.1997 C.ar    
   3 C3             0.2384     0.1756     1.1578 C.ar    
   4 C4             0.4461     1.4923     1.5052 C.ar    
   5 C5             2.2692     1.5986    -0.0766 C.ar    
   6 C6             3.2263     2.6158    -0.5183 C.2     
   7 C7             1.4618     2.2194     0.8940 C.ar    
   8 N8             1.9064     3.5170     1.0219 N.pl3   
   9 C9             2.9576     3.7343     0.1735 C.2     
  10 S10            3.8296     5.2570     0.0128 S.o2    
  11 O11            3.1908     6.1792     0.8851 O.2     
  12 O12            5.2119     4.9385     0.0957 O.2     
  13 N13            3.5688     5.8112    -1.5258 N.am    
  14 C14            2.2170     6.1824    -1.9513 C.3     
  15 C15            2.2968     7.0224    -3.2276 C.3     
  16 C16            0.9062     7.4043    -3.6654 C.ar    
  17 C17           -1.0729     6.9255    -4.9253 C.ar    
  18 C18            0.2016     6.5786    -4.5221 C.ar    
  19 C19            0.3357     8.5768    -3.2051 C.ar    
  20 C20           -0.9386     8.9295    -3.6039 C.ar    
  21 C21           -1.6471     8.1052    -4.4688 C.ar    
  22 N22           -2.9359     8.4591    -4.8746 N.3     
  23 C23            4.3076     2.4399    -1.5531 C.3     
  24 C24           -3.8975     7.3947    -4.5604 C.3     
  25 C25           -3.3437     9.7367    -4.2764 C.3     
  26 Cl26           0.7537    -2.0988    -0.2218 Cl      
  27 C27           -5.2653     7.7518    -5.1466 C.3     
  28 C28           -5.7372     9.0827    -4.5544 C.3     
  29 C29           -4.6950    10.1637    -4.8540 C.3     
  30 H30            2.6670    -0.2182    -1.1595 H       
  31 H31           -0.5518    -0.3849     1.6350 H       
  32 H32           -0.1795     1.9597     2.2512 H       
  33 H33            1.5305     4.1780     1.6241 H       
  34 H34            4.3111     5.8900    -2.1452 H       
  35 H35            1.6367     5.2804    -2.1457 H       
  36 H36            1.7347     6.7622    -1.1643 H       
  37 H37            2.8771     7.9244    -3.0333 H       
  38 H38            2.7791     6.4426    -4.0146 H       
  39 H39           -1.6229     6.2800    -5.5941 H       
  40 H40            0.6485     5.6615    -4.8766 H       
  41 H41            0.8871     9.2172    -2.5326 H       
  42 H42           -1.3839     9.8450    -3.2434 H       
  43 H43            3.8926     2.6149    -2.5457 H       
  44 H44            5.1106     3.1524    -1.3643 H       
  45 H45            4.7018     1.4252    -1.4978 H       
  46 H46           -3.5521     6.4547    -4.9907 H       
  47 H47           -3.9821     7.2894    -3.4788 H       
  48 H48           -3.4310     9.6204    -3.1961 H       
  49 H49           -2.5962    10.4977    -4.5004 H       
  50 H50           -5.1843     7.8437    -6.2297 H       
  51 H51           -5.9825     6.9690    -4.8998 H       
  52 H52           -6.6911     9.3624    -5.0016 H       
  53 H53           -5.8557     8.9798    -3.4758 H       
  54 H54           -5.0048    11.1041    -4.3983 H       
  55 H55           -4.6051    10.2935    -5.9325 H       
@<TRIPOS>BOND
   1    1    2 ar
   2    1    5 ar
   3    1   30 1
   4    2    3 ar
   5    2   26 1
   6    3    4 ar
   7    3   31 1
   8    4    7 ar
   9    4   32 1
  10    5    7 ar
  11    5    6 1
  12    6    9 2
  13    6   23 1
  14    7    8 1
  15    8    9 1
  16    8   33 1
  17    9   10 1
  18   10   11 2
  19   10   12 2
  20   10   13 am
  21   13   14 1
  22   13   34 1
  23   14   15 1
  24   14   35 1
  25   14   36 1
  26   15   16 1
  27   15   37 1
  28   15   38 1
  29   16   19 ar
  30   16   18 ar
  31   17   18 ar
  32   17   21 ar
  33   17   39 1
  34   18   40 1
  35   19   20 ar
  36   19   41 1
  37   20   21 ar
  38   20   42 1
  39   21   22 1
  40   22   25 1
  41   22   24 1
  42   23   43 1
  43   23   44 1
  44   23   45 1
  45   24   27 1
  46   24   46 1
  47   24   47 1
  48   25   29 1
  49   25   48 1
  50   25   49 1
  51   27   28 1
  52   27   50 1
  53   27   51 1
  54   28   29 1
  55   28   52 1
  56   28   53 1
  57   29   54 1
  58   29   55 1

#	End of record

