#	Name: ASD01418010
#	Creating user name:	WinNT
#	Creation time:	15. 06. 2019 19:20

#	Modifying user name:	WinNT
#	Modification time:	15. 06. 2019 19:20

#	Program:	/corina/corina34_cracker 3.40 0067  02.08.2006

@<TRIPOS>MOLECULE
ASD01418010
  70   74    0    0    0
SMALL
NO_CHARGES


@<TRIPOS>ATOM
   1 N1            -0.0161     1.3353     0.0094 N.pl3   
   2 C2             0.0021    -0.0041     0.0020 C.2     
   3 C3             1.1798    -0.7228    -0.0126 C.2     
   4 C4             2.4589     0.0063    -0.0209 C.2     
   5 C5             2.3958     1.4773    -0.0129 C.ar    
   6 C6             3.5608     2.2488    -0.0193 C.ar    
   7 C7             3.4724     3.6117    -0.0112 C.ar    
   8 C8             2.2227     4.2374     0.0040 C.ar    
   9 C9             1.0593     3.4855     0.0106 C.ar    
  10 C10            1.1333     2.0974     0.0025 C.ar    
  11 C11            1.1579    -2.1921    -0.0194 C.2     
  12 O12            0.0961    -2.7841    -0.0120 O.2     
  13 O13            2.3151    -2.8834    -0.0337 O.3     
  14 O14            3.5257    -0.5833    -0.0334 O.2     
  15 C15           -1.3115     2.0194     0.0191 C.3     
  16 C16           -1.7491     2.2463     1.4432 C.ar    
  17 C17           -1.3908     3.4089     2.0996 C.ar    
  18 C18           -1.7921     3.6170     3.4059 C.ar    
  19 C19           -2.5522     2.6626     4.0558 C.ar    
  20 C20           -2.9113     1.5003     3.3992 C.ar    
  21 C21           -2.5136     1.2942     2.0914 C.ar    
  22 S22           -3.0628     2.9273     5.7213 S.o2    
  23 O23           -3.2373     1.6185     6.2465 O.2     
  24 O24           -2.0805     3.8053     6.2536 O.2     
  25 C25           -4.6609     3.7731     5.5758 C.3     
  26 N26            2.1466     5.6280     0.0131 N.3     
  27 C27            1.4219     6.1234    -1.1655 C.3     
  28 C28            1.2910     7.6458    -1.0779 C.3     
  29 N29            2.6299     8.2461    -0.9956 N.3     
  30 C30            3.3545     7.7506     0.1830 C.3     
  31 C31            3.4854     6.2283     0.0953 C.3     
  32 C32            2.5495     9.7128    -0.9860 C.3     
  33 F33            4.5982     4.3586    -0.0175 F       
  34 C34            2.2174    -4.3321    -0.0396 C.3     
  35 C35            3.6012    -4.9288    -0.0556 C.ar    
  36 C36            4.2470    -5.2081     1.1343 C.ar    
  37 C37            5.5161    -5.7553     1.1203 C.ar    
  38 C38            6.1401    -6.0237    -0.0850 C.ar    
  39 C39            5.4932    -5.7440    -1.2756 C.ar    
  40 C40            4.2219    -5.2020    -1.2603 C.ar    
  41 Cl41           7.7344    -6.7105    -0.1035 Cl      
  42 H42           -0.9361    -0.5391     0.0081 H       
  43 H43            4.5282     1.7688    -0.0304 H       
  44 H44            0.0974     3.9765     0.0221 H       
  45 H45           -1.2196     2.9788    -0.4899 H       
  46 H46           -2.0508     1.4049    -0.4946 H       
  47 H47           -0.7969     4.1545     1.5918 H       
  48 H48           -1.5115     4.5250     3.9189 H       
  49 H49           -3.5049     0.7546     3.9070 H       
  50 H50           -2.7973     0.3879     1.5772 H       
  51 H51           -5.3600     3.1379     5.0319 H       
  52 H52           -5.0552     3.9785     6.5710 H       
  53 H53           -4.5277     4.7113     5.0370 H       
  54 H54            1.9711     5.8571    -2.0686 H       
  55 H55            0.4293     5.6743    -1.1974 H       
  56 H56            0.7793     8.0185    -1.9652 H       
  57 H57            0.7184     7.9110    -0.1891 H       
  58 H58            4.3472     8.1997     0.2149 H       
  59 H59            2.8053     8.0170     1.0860 H       
  60 H60            3.9972     5.8556     0.9826 H       
  61 H61            4.0581     5.9631    -0.7934 H       
  62 H62            1.9667    10.0392    -0.1247 H       
  63 H63            3.5541    10.1314    -0.9246 H       
  64 H64            2.0682    10.0563    -1.9017 H       
  65 H65            1.6888    -4.6643     0.8539 H       
  66 H66            1.6718    -4.6559    -0.9260 H       
  67 H67            3.7599    -4.9982     2.0751 H       
  68 H68            6.0207    -5.9731     2.0500 H       
  69 H69            5.9798    -5.9533    -2.2168 H       
  70 H70            3.7151    -4.9877    -2.1896 H       
@<TRIPOS>BOND
   1    1    2 1
   2    1   10 1
   3    1   15 1
   4    2    3 2
   5    2   42 1
   6    3    4 1
   7    3   11 1
   8    4    5 1
   9    4   14 2
  10    5    6 ar
  11    5   10 ar
  12    6    7 ar
  13    6   43 1
  14    7    8 ar
  15    7   33 1
  16    8    9 ar
  17    8   26 1
  18    9   10 ar
  19    9   44 1
  20   11   12 2
  21   11   13 1
  22   13   34 1
  23   15   16 1
  24   15   45 1
  25   15   46 1
  26   16   17 ar
  27   16   21 ar
  28   17   18 ar
  29   17   47 1
  30   18   19 ar
  31   18   48 1
  32   19   20 ar
  33   19   22 1
  34   20   21 ar
  35   20   49 1
  36   21   50 1
  37   22   23 2
  38   22   24 2
  39   22   25 1
  40   25   51 1
  41   25   52 1
  42   25   53 1
  43   26   27 1
  44   26   31 1
  45   27   28 1
  46   27   54 1
  47   27   55 1
  48   28   29 1
  49   28   56 1
  50   28   57 1
  51   29   30 1
  52   29   32 1
  53   30   31 1
  54   30   58 1
  55   30   59 1
  56   31   60 1
  57   31   61 1
  58   32   62 1
  59   32   63 1
  60   32   64 1
  61   34   35 1
  62   34   65 1
  63   34   66 1
  64   35   36 ar
  65   35   40 ar
  66   36   37 ar
  67   36   67 1
  68   37   38 ar
  69   37   68 1
  70   38   39 ar
  71   38   41 1
  72   39   40 ar
  73   39   69 1
  74   40   70 1

#	End of record

