#	Name: ASD07931879
#	Creating user name:	WinNT
#	Creation time:	15. 06. 2019 21:13

#	Modifying user name:	WinNT
#	Modification time:	15. 06. 2019 21:13

#	Program:	/corina/corina34_cracker 3.40 0067  02.08.2006

@<TRIPOS>MOLECULE
ASD07931879
  58   61    0    0    0
SMALL
NO_CHARGES


@<TRIPOS>ATOM
   1 C1            -0.1635     1.8615     0.3838 C.3     
   2 C2            -0.2290     0.3665     0.7026 C.3     
   3 O3             0.4246     2.2580     2.7263 O.3     
   4 C4            -0.4459     2.6667     1.6537 C.3     
   5 C5            -0.0498     4.1515     1.4666 C.3     
   6 C6             0.5184     4.4954     2.8330 C.2     
   7 C7             0.7455     3.3471     3.4650 C.2     
   8 C8             1.2934     3.2676     4.8381 C.ar    
   9 C9             1.5047     2.0257     5.4360 C.ar    
  10 C10            2.0169     1.9567     6.7181 C.ar    
  11 C11            2.3198     3.1185     7.4088 C.ar    
  12 C12            2.1113     4.3546     6.8194 C.ar    
  13 C13            1.6053     4.4341     5.5355 C.ar    
  14 C14            2.8775     3.0375     8.8065 C.3     
  15 F15            4.2743     2.9847     8.7488 F       
  16 F16            2.4831     4.1667     9.5321 F       
  17 F17            2.3929     1.8859     9.4359 F       
  18 F18            2.4078     5.4842     7.4986 F       
  19 F19            2.2221     0.7541     7.2985 F       
  20 N20            1.1747     2.1964    -0.1210 N.3     
  21 C21            2.2195     1.5864     0.7123 C.3     
  22 C22            3.5683     2.1085     0.2889 C.ar    
  23 C23            4.0303     3.3130     0.7857 C.ar    
  24 C24            5.2675     3.7919     0.3973 C.ar    
  25 C25            6.0429     3.0662    -0.4875 C.ar    
  26 C26            5.5813     1.8613    -0.9837 C.ar    
  27 C27            4.3460     1.3803    -0.5919 C.ar    
  28 C28            1.3224     1.7967    -1.5268 C.3     
  29 C29            0.5480     2.7470    -2.4033 C.ar    
  30 C30            1.1215     3.9384    -2.8065 C.ar    
  31 C31            0.4112     4.8102    -3.6105 C.ar    
  32 C32           -0.8725     4.4904    -4.0115 C.ar    
  33 C33           -1.4456     3.2986    -3.6090 C.ar    
  34 C34           -0.7337     2.4248    -2.8087 C.ar    
  35 H35           -0.9088     2.1044    -0.3737 H       
  36 H36           -1.2220     0.1180     1.0772 H       
  37 H37           -0.0278    -0.2071    -0.2021 H       
  38 H38            0.5163     0.1236     1.4601 H       
  39 H39           -1.4922     2.5766     1.9456 H       
  40 H40            0.7084     4.2582     0.6908 H       
  41 H41           -0.9238     4.7631     1.2424 H       
  42 H42            0.7035     5.4869     3.2191 H       
  43 H43            1.2682     1.1193     4.8985 H       
  44 H44            1.4476     5.3982     5.0750 H       
  45 H45            2.0440     1.8392     1.7579 H       
  46 H46            2.1948     0.5035     0.5911 H       
  47 H47            3.4245     3.8799     1.4770 H       
  48 H48            5.6281     4.7332     0.7849 H       
  49 H49            7.0092     3.4407    -0.7915 H       
  50 H50            6.1870     1.2945    -1.6753 H       
  51 H51            3.9869     0.4372    -0.9767 H       
  52 H52            2.3763     1.8241    -1.8036 H       
  53 H53            0.9381     0.7853    -1.6593 H       
  54 H54            2.1244     4.1883    -2.4932 H       
  55 H55            0.8590     5.7413    -3.9249 H       
  56 H56           -1.4277     5.1718    -4.6390 H       
  57 H57           -2.4486     3.0489    -3.9221 H       
  58 H58           -1.1801     1.4920    -2.4972 H       
@<TRIPOS>BOND
   1    1    2 1
   2    1   20 1
   3    1    4 1
   4    1   35 1
   5    2   36 1
   6    2   37 1
   7    2   38 1
   8    3    7 1
   9    3    4 1
  10    4    5 1
  11    4   39 1
  12    5    6 1
  13    5   40 1
  14    5   41 1
  15    6    7 2
  16    6   42 1
  17    7    8 1
  18    8    9 ar
  19    8   13 ar
  20    9   10 ar
  21    9   43 1
  22   10   11 ar
  23   10   19 1
  24   11   12 ar
  25   11   14 1
  26   12   13 ar
  27   12   18 1
  28   13   44 1
  29   14   15 1
  30   14   16 1
  31   14   17 1
  32   20   21 1
  33   20   28 1
  34   21   22 1
  35   21   45 1
  36   21   46 1
  37   22   23 ar
  38   22   27 ar
  39   23   24 ar
  40   23   47 1
  41   24   25 ar
  42   24   48 1
  43   25   26 ar
  44   25   49 1
  45   26   27 ar
  46   26   50 1
  47   27   51 1
  48   28   29 1
  49   28   52 1
  50   28   53 1
  51   29   30 ar
  52   29   34 ar
  53   30   31 ar
  54   30   54 1
  55   31   32 ar
  56   31   55 1
  57   32   33 ar
  58   32   56 1
  59   33   34 ar
  60   33   57 1
  61   34   58 1

#	End of record

