#	Name: ASD01148107
#	Creating user name:	WinNT
#	Creation time:	15. 06. 2019 19:02

#	Modifying user name:	WinNT
#	Modification time:	15. 06. 2019 19:02

#	Program:	/corina/corina34_cracker 3.40 0067  02.08.2006

@<TRIPOS>MOLECULE
ASD01148107
  41   42    0    0    0
SMALL
NO_CHARGES


@<TRIPOS>ATOM
   1 C1            -0.0166     1.3749     0.0096 C.ar    
   2 C2             0.0021    -0.0041     0.0020 C.ar    
   3 C3             1.1752     2.0867     0.0020 C.ar    
   4 C4             2.3891     1.4132    -0.0136 C.ar    
   5 C5             2.4142     0.0343    -0.0217 C.ar    
   6 C6             1.2192    -0.6830    -0.0132 C.ar    
   7 C7             1.2427    -2.1664    -0.0214 C.ar    
   8 C8             0.0483    -2.8844    -0.0129 C.ar    
   9 C9            -1.3322     2.1098     0.0198 C.3     
  10 C10           -2.1351     1.7357    -1.2277 C.3     
  11 C11           -2.1233     1.7221     1.2707 C.3     
  12 C12            3.6807     2.1896    -0.0223 C.3     
  13 C13            4.5017     1.8275     1.2170 C.3     
  14 C14            4.4769     1.8409    -1.2813 C.3     
  15 O15            1.1537     3.4453     0.0095 O.3     
  16 C16            2.4593    -2.8459    -0.0433 C.ar    
  17 C17            2.4765    -4.2256    -0.0508 C.ar    
  18 C18            0.0749    -4.2638    -0.0205 C.ar    
  19 C19            1.2867    -4.9353    -0.0365 C.ar    
  20 F20            1.3082    -6.2861    -0.0439 F       
  21 H21           -0.9255    -0.5573     0.0082 H       
  22 H22            3.3588    -0.4891    -0.0342 H       
  23 H23           -0.8967    -2.3617    -0.0001 H       
  24 H24           -1.1482     3.1842     0.0248 H       
  25 H25           -2.3191     0.6613    -1.2327 H       
  26 H26           -3.0867     2.2672    -1.2203 H       
  27 H27           -1.5715     2.0119    -2.1189 H       
  28 H28           -1.5513     1.9886     2.1595 H       
  29 H29           -3.0749     2.2537     1.2781 H       
  30 H30           -2.3073     0.6477     1.2657 H       
  31 H31            3.4627     3.2576    -0.0144 H       
  32 H32            4.7197     0.7596     1.2091 H       
  33 H33            5.4359     2.3891     1.2107 H       
  34 H34            3.9344     2.0760     2.1140 H       
  35 H35            3.8920     2.0989    -2.1642 H       
  36 H36            5.4111     2.4025    -1.2876 H       
  37 H37            4.6949     0.7730    -1.2892 H       
  38 H38            1.1559     3.8338     0.8950 H       
  39 H39            3.3872    -2.2934    -0.0547 H       
  40 H40            3.4188    -4.7530    -0.0681 H       
  41 H41           -0.8502    -4.8210    -0.0136 H       
@<TRIPOS>BOND
   1    1    2 ar
   2    1    3 ar
   3    1    9 1
   4    2    6 ar
   5    2   21 1
   6    3    4 ar
   7    3   15 1
   8    4    5 ar
   9    4   12 1
  10    5    6 ar
  11    5   22 1
  12    6    7 1
  13    7    8 ar
  14    7   16 ar
  15    8   18 ar
  16    8   23 1
  17    9   10 1
  18    9   11 1
  19    9   24 1
  20   10   25 1
  21   10   26 1
  22   10   27 1
  23   11   28 1
  24   11   29 1
  25   11   30 1
  26   12   13 1
  27   12   14 1
  28   12   31 1
  29   13   32 1
  30   13   33 1
  31   13   34 1
  32   14   35 1
  33   14   36 1
  34   14   37 1
  35   15   38 1
  36   16   17 ar
  37   16   39 1
  38   17   19 ar
  39   17   40 1
  40   18   19 ar
  41   18   41 1
  42   19   20 1

#	End of record

