#	Name: ASD01912595
#	Creating user name:	WinNT
#	Creation time:	15. 06. 2019 20:00

#	Modifying user name:	WinNT
#	Modification time:	15. 06. 2019 20:00

#	Program:	/corina/corina34_cracker 3.40 0067  02.08.2006

@<TRIPOS>MOLECULE
ASD01912595
  35   37    0    0    0
SMALL
NO_CHARGES


@<TRIPOS>ATOM
   1 C1            -0.0173     1.4278     0.0099 C.ar    
   2 C2             0.0021    -0.0041     0.0020 C.1     
   3 C3             0.0180    -1.1779    -0.0044 C.1     
   4 C4             0.0374    -2.6098    -0.0123 C.ar    
   5 C5            -1.1617    -3.3283    -0.0047 C.ar    
   6 C6             1.2548    -3.2950    -0.0335 C.ar    
   7 C7             1.2653    -4.6765    -0.0414 C.ar    
   8 C8             0.0719    -5.3809    -0.0289 C.ar    
   9 C9            -1.1366    -4.7070    -0.0128 C.ar    
  10 C10            1.1863     2.1435     0.0022 C.ar    
  11 C11            1.1646     3.5068     0.0097 C.ar    
  12 C12           -0.0589     4.1875     0.0241 C.ar    
  13 C13           -1.2589     3.4768     0.0322 C.ar    
  14 C14           -1.2389     2.1099     0.0194 C.ar    
  15 C15           -0.0493     5.6647     0.0294 C.2     
  16 N16            1.0730     6.3153    -0.3366 N.am    
  17 O17           -1.0412     6.2856     0.3594 O.2     
  18 F18            2.4409    -5.3419    -0.0619 F       
  19 C19            2.4453     4.2990     0.0036 C.3     
  20 C20            2.2548     5.5885    -0.7922 C.3     
  21 C21            1.1077     7.7787    -0.2766 C.3     
  22 H22           -2.1061    -2.8045     0.0078 H       
  23 H23            2.1850    -2.7463    -0.0439 H       
  24 H24            0.0850    -6.4608    -0.0356 H       
  25 H25           -2.0627    -5.2625    -0.0028 H       
  26 H26            2.1292     1.6170    -0.0091 H       
  27 H27           -2.2011     4.0047     0.0445 H       
  28 H28           -2.1663     1.5563     0.0252 H       
  29 H29            2.7246     4.5437     1.0284 H       
  30 H30            3.2364     3.7049    -0.4539 H       
  31 H31            2.1400     5.3437    -1.8481 H       
  32 H32            3.1340     6.2203    -0.6657 H       
  33 H33            0.1479     8.1504     0.0822 H       
  34 H34            1.8977     8.0958     0.4042 H       
  35 H35            1.3032     8.1785    -1.2716 H       
@<TRIPOS>BOND
   1    1    2 1
   2    1   10 ar
   3    1   14 ar
   4    2    3 3
   5    3    4 1
   6    4    5 ar
   7    4    6 ar
   8    5    9 ar
   9    5   22 1
  10    6    7 ar
  11    6   23 1
  12    7    8 ar
  13    7   18 1
  14    8    9 ar
  15    8   24 1
  16    9   25 1
  17   10   11 ar
  18   10   26 1
  19   11   12 ar
  20   11   19 1
  21   12   13 ar
  22   12   15 1
  23   13   14 ar
  24   13   27 1
  25   14   28 1
  26   15   16 am
  27   15   17 2
  28   16   21 1
  29   16   20 1
  30   19   20 1
  31   19   29 1
  32   19   30 1
  33   20   31 1
  34   20   32 1
  35   21   33 1
  36   21   34 1
  37   21   35 1

#	End of record

