#	Name: ASD05313218
#	Creating user name:	WinNT
#	Creation time:	15. 06. 2019 20:58

#	Modifying user name:	WinNT
#	Modification time:	15. 06. 2019 20:58

#	Program:	/corina/corina34_cracker 3.40 0067  02.08.2006

@<TRIPOS>MOLECULE
ASD05313218
  40   43    0    0    0
SMALL
NO_CHARGES


@<TRIPOS>ATOM
   1 C1             0.2207     0.5729     0.7640 C.2     
   2 C2             0.2893    -0.8299     0.2021 C.3     
   3 N3             1.2580     1.4437     0.7348 N.pl3   
   4 N4             1.5408    -0.9250    -0.5715 N.am    
   5 C5             2.7598    -0.3428     0.0104 C.3     
   6 C6             2.5742     1.1719     0.1539 C.3     
   7 N7            -0.7950     1.1428     1.3444 N.2     
   8 C8            -0.4596     2.3869     1.7108 C.2     
   9 C9             0.8334     2.5998     1.3385 C.2     
  10 C10            1.6238     3.8325     1.5467 C.ar    
  11 C11            2.7991     4.0417     0.8242 C.ar    
  12 C12            3.5316     5.1938     1.0228 C.ar    
  13 C13            3.1034     6.1406     1.9362 C.ar    
  14 C14            1.9390     5.9392     2.6558 C.ar    
  15 C15            1.1943     4.7940     2.4624 C.ar    
  16 C16            1.5672    -1.5282    -1.7765 C.2     
  17 O17            2.5834    -1.5098    -2.4433 O.2     
  18 C18            0.3608    -2.2120    -2.2870 C.ar    
  19 C19           -0.0382    -2.0337    -3.6141 C.ar    
  20 C20           -1.1679    -2.6767    -4.0841 C.ar    
  21 C21           -1.9021    -3.4945    -3.2426 C.ar    
  22 C22           -1.5112    -3.6738    -1.9275 C.ar    
  23 C23           -0.3822    -3.0434    -1.4472 C.ar    
  24 Cl24          -1.6671    -2.4579    -5.7323 Cl      
  25 Cl25           0.8818    -1.0072    -4.6693 Cl      
  26 H26            0.2988    -1.5559     1.0151 H       
  27 H27           -0.5653    -1.0114    -0.4496 H       
  28 H28            2.9410    -0.7822     0.9913 H       
  29 H29            3.6082    -0.5456    -0.6432 H       
  30 H30            2.6431     1.6417    -0.8273 H       
  31 H31            3.3499     1.5736     0.8059 H       
  32 H32           -1.1005     3.0954     2.2146 H       
  33 H33            3.1349     3.3030     0.1114 H       
  34 H34            4.4415     5.3569     0.4642 H       
  35 H35            3.6807     7.0405     2.0885 H       
  36 H36            1.6102     6.6819     3.3676 H       
  37 H37            0.2834     4.6398     3.0217 H       
  38 H38           -2.7843    -3.9946    -3.6141 H       
  39 H39           -2.0891    -4.3130    -1.2764 H       
  40 H40           -0.0765    -3.1888    -0.4216 H       
@<TRIPOS>BOND
   1    1    2 1
   2    1    3 1
   3    1    7 2
   4    2    4 1
   5    2   26 1
   6    2   27 1
   7    3    6 1
   8    3    9 1
   9    4    5 1
  10    4   16 am
  11    5    6 1
  12    5   28 1
  13    5   29 1
  14    6   30 1
  15    6   31 1
  16    7    8 1
  17    8    9 2
  18    8   32 1
  19    9   10 1
  20   10   11 ar
  21   10   15 ar
  22   11   12 ar
  23   11   33 1
  24   12   13 ar
  25   12   34 1
  26   13   14 ar
  27   13   35 1
  28   14   15 ar
  29   14   36 1
  30   15   37 1
  31   16   17 2
  32   16   18 1
  33   18   19 ar
  34   18   23 ar
  35   19   20 ar
  36   19   25 1
  37   20   21 ar
  38   20   24 1
  39   21   22 ar
  40   21   38 1
  41   22   23 ar
  42   22   39 1
  43   23   40 1

#	End of record

