#	Name: ASD01814812
#	Creating user name:	WinNT
#	Creation time:	15. 06. 2019 19:33

#	Modifying user name:	WinNT
#	Modification time:	15. 06. 2019 19:33

#	Program:	/corina/corina34_cracker 3.40 0067  02.08.2006

@<TRIPOS>MOLECULE
ASD01814812
  69   73    0    0    0
SMALL
NO_CHARGES


@<TRIPOS>ATOM
   1 C1             0.1872     1.0524    -0.2120 C.3     
   2 C2             0.1321    -0.4319     0.0424 C.ar    
   3 C3             0.0615    -1.3019    -1.0221 C.ar    
   4 C4             0.0394    -0.7720    -2.4327 C.3     
   5 C5             0.0108    -2.6777    -0.7887 C.ar    
   6 N6            -0.0589    -3.5704    -1.8078 N.2     
   7 C7            -0.1056    -4.8496    -1.5901 C.2     
   8 N8            -0.0891    -5.3970    -0.3468 N.am    
   9 C9            -0.1453    -6.8530    -0.1941 C.3     
  10 H10           -0.1225    -7.1096     0.8650 H       
  11 C11           -1.4372    -7.3846    -0.8224 C.3     
  12 C12           -1.4500    -8.9126    -0.7282 C.3     
  13 O13           -0.2925    -9.4385    -1.3806 O.3     
  14 C14            0.9449    -9.0132    -0.8060 C.3     
  15 C15            1.0552    -7.4891    -0.9015 C.3     
  16 H16            1.0605    -7.1905    -1.9498 H       
  17 O17            2.2638    -7.0558    -0.2741 O.3     
  18 C18           -0.0209    -4.6097     0.7519 C.2     
  19 O19           -0.0045    -5.0867     1.8717 O.2     
  20 C20            0.0329    -3.1555     0.5403 C.ar    
  21 C21            0.1047    -2.2580     1.6037 C.ar    
  22 C22            0.1590    -0.9054     1.3478 C.ar    
  23 C23            0.2429     0.0690     2.4943 C.3     
  24 C24            1.6832     0.4451     2.7295 C.ar    
  25 C25            2.4874    -0.3651     3.5123 C.ar    
  26 C26            3.8063    -0.0286     3.7328 C.ar    
  27 C27            4.3321     1.1333     3.1644 C.ar    
  28 C28            5.7440     1.4996     3.3959 C.2     
  29 O29            6.1986     2.5119     2.8996 O.2     
  30 N30            6.5284     0.7115     4.1576 N.am    
  31 C31            7.9290     1.0748     4.3872 C.3     
  32 C32            8.5898     0.0208     5.2779 C.3     
  33 H33            8.5387    -0.9596     4.8044 H       
  34 C34           10.0638     0.4045     5.5622 C.3     
  35 C35           10.3112    -0.3459     6.8992 C.3     
  36 C36            8.9316    -0.2550     7.5861 C.3     
  37 O37            7.9540    -0.0136     6.5655 O.3     
  38 C38            3.5150     1.9483     2.3743 C.ar    
  39 F39            4.0145     3.0746     1.8199 F       
  40 C40            2.1959     1.5946     2.1577 C.ar    
  41 H41            1.2250     1.3613    -0.3374 H       
  42 H42           -0.3735     1.2871    -1.1168 H       
  43 H43           -0.2499     1.5826     0.6341 H       
  44 H44            1.0603    -0.6879    -2.8053 H       
  45 H45           -0.5243    -1.4547    -3.0686 H       
  46 H46           -0.4337     0.2099    -2.4447 H       
  47 H47           -0.1608    -5.5124    -2.4410 H       
  48 H48           -2.2961    -6.9795    -0.2874 H       
  49 H49           -1.4838    -7.0839    -1.8691 H       
  50 H50           -1.4443    -9.2122     0.3198 H       
  51 H51           -2.3470    -9.2991    -1.2120 H       
  52 H52            0.9820    -9.3141     0.2410 H       
  53 H53            1.7732    -9.4721    -1.3459 H       
  54 H54            3.0661    -7.4207    -0.6718 H       
  55 H55            0.1214    -2.6203     2.6210 H       
  56 H56           -0.3316     0.9635     2.2537 H       
  57 H57           -0.1636    -0.3928     3.3941 H       
  58 H58            2.0804    -1.2636     3.9522 H       
  59 H59            4.4314    -0.6624     4.3443 H       
  60 H60            6.1657    -0.0962     4.5536 H       
  61 H61            8.4528     1.1240     3.4326 H       
  62 H62            7.9764     2.0468     4.8782 H       
  63 H63           10.7241     0.0363     4.7770 H       
  64 H64           10.1717     1.4816     5.6904 H       
  65 H65           10.5856    -1.3848     6.7159 H       
  66 H66           11.0738     0.1590     7.4921 H       
  67 H67            8.7092    -1.1930     8.0947 H       
  68 H68            8.9291     0.5657     8.3034 H       
  69 H69            1.5638     2.2197     1.5444 H       
@<TRIPOS>BOND
   1    1    2 1
   2    1   41 1
   3    1   42 1
   4    1   43 1
   5    2   22 ar
   6    2    3 ar
   7    3    4 1
   8    3    5 ar
   9    4   44 1
  10    4   45 1
  11    4   46 1
  12    5   20 ar
  13    5    6 1
  14    6    7 2
  15    7    8 1
  16    7   47 1
  17    8    9 1
  18    8   18 am
  19    9   10 1
  20    9   15 1
  21    9   11 1
  22   11   12 1
  23   11   48 1
  24   11   49 1
  25   12   13 1
  26   12   50 1
  27   12   51 1
  28   13   14 1
  29   14   15 1
  30   14   52 1
  31   14   53 1
  32   15   16 1
  33   15   17 1
  34   17   54 1
  35   18   19 2
  36   18   20 1
  37   20   21 ar
  38   21   22 ar
  39   21   55 1
  40   22   23 1
  41   23   24 1
  42   23   56 1
  43   23   57 1
  44   24   40 ar
  45   24   25 ar
  46   25   26 ar
  47   25   58 1
  48   26   27 ar
  49   26   59 1
  50   27   28 1
  51   27   38 ar
  52   28   29 2
  53   28   30 am
  54   30   31 1
  55   30   60 1
  56   31   32 1
  57   31   61 1
  58   31   62 1
  59   32   33 1
  60   32   37 1
  61   32   34 1
  62   34   35 1
  63   34   63 1
  64   34   64 1
  65   35   36 1
  66   35   65 1
  67   35   66 1
  68   36   37 1
  69   36   67 1
  70   36   68 1
  71   38   39 1
  72   38   40 ar
  73   40   69 1

#	End of record

