#	Name: ASD01881679
#	Creating user name:	WinNT
#	Creation time:	15. 06. 2019 19:43

#	Modifying user name:	WinNT
#	Modification time:	15. 06. 2019 19:43

#	Program:	/corina/corina34_cracker 3.40 0067  02.08.2006

@<TRIPOS>MOLECULE
ASD01881679
  43   46    0    0    0
SMALL
NO_CHARGES


@<TRIPOS>ATOM
   1 O1            -0.0161     1.3335     0.0094 O.3     
   2 C2             0.0021    -0.0041     0.0020 C.2     
   3 N3             1.2348    -0.5293    -0.0126 N.am    
   4 C4             2.2183     0.5645    -0.0161 C.3     
   5 C5             1.3508     1.8380    -0.0010 C.3     
   6 O6            -1.0070    -0.6809     0.0087 O.2     
   7 C7             1.5514    -1.9597    -0.0233 C.3     
   8 C8             1.6484    -2.4497    -1.4694 C.3     
   9 F9             2.6569    -1.7439    -2.1343 F       
  10 F10            1.9507    -3.8156    -1.4796 F       
  11 F11            0.4264    -2.2377    -2.1166 F       
  12 C12            1.6043     2.6745    -1.2567 C.3     
  13 O13            0.8078     3.8600    -1.2080 O.3     
  14 N14            1.0567     7.4864    -5.3057 N.pl3   
  15 N15            0.1305     8.3919    -4.7672 N.2     
  16 N16           -0.2965     7.9469    -3.6383 N.2     
  17 C17            0.2849     6.7654    -3.3502 C.ar    
  18 C18            1.1574     6.4497    -4.4062 C.ar    
  19 C19            0.1721     5.8817    -2.2681 C.ar    
  20 C20            0.9154     4.7195    -2.2564 C.ar    
  21 C21            1.7755     4.4203    -3.3102 C.ar    
  22 C22            1.8968     5.2729    -4.3711 C.ar    
  23 C23            1.7712     7.6157    -6.5781 C.3     
  24 C24            3.0907     8.3556    -6.3491 C.3     
  25 C25            4.0415     8.4895    -7.5403 C.3     
  26 C26            3.2694     9.7107    -7.0368 C.3     
  27 Br27          -0.9929     6.2797    -0.8328 Br      
  28 H28            2.8457     0.5181     0.8740 H       
  29 H29            2.8286     0.5277    -0.9184 H       
  30 H30            1.5485     2.4243     0.8964 H       
  31 H31            2.5035    -2.1248     0.4810 H       
  32 H32            0.7656    -2.5096     0.4948 H       
  33 H33            2.6586     2.9469    -1.3051 H       
  34 H34            1.3381     2.0939    -2.1399 H       
  35 H35            2.3519     3.5072    -3.2883 H       
  36 H36            2.5667     5.0320    -5.1833 H       
  37 H37            1.9760     6.6243    -6.9822 H       
  38 H38            1.1581     8.1762    -7.2838 H       
  39 H39            3.5354     8.2293    -5.3620 H       
  40 H40            5.1117     8.4517    -7.3368 H       
  41 H41            3.7270     8.0505    -8.4872 H       
  42 H42            2.4469    10.0750    -7.6523 H       
  43 H43            3.8316    10.4762    -6.5020 H       
@<TRIPOS>BOND
   1    1    2 1
   2    1    5 1
   3    2    3 am
   4    2    6 2
   5    3    4 1
   6    3    7 1
   7    4    5 1
   8    4   28 1
   9    4   29 1
  10    5   12 1
  11    5   30 1
  12    7    8 1
  13    7   31 1
  14    7   32 1
  15    8    9 1
  16    8   10 1
  17    8   11 1
  18   12   13 1
  19   12   33 1
  20   12   34 1
  21   13   20 1
  22   14   15 1
  23   14   18 1
  24   14   23 1
  25   15   16 2
  26   16   17 1
  27   17   18 ar
  28   17   19 ar
  29   18   22 ar
  30   19   20 ar
  31   19   27 1
  32   20   21 ar
  33   21   22 ar
  34   21   35 1
  35   22   36 1
  36   23   24 1
  37   23   37 1
  38   23   38 1
  39   24   25 1
  40   24   26 1
  41   24   39 1
  42   25   26 1
  43   25   40 1
  44   25   41 1
  45   26   42 1
  46   26   43 1

#	End of record

