#	Name: ASD08170298
#	Creating user name:	WinNT
#	Creation time:	15. 06. 2019 21:17

#	Modifying user name:	WinNT
#	Modification time:	15. 06. 2019 21:17

#	Program:	/corina/corina34_cracker 3.40 0067  02.08.2006

@<TRIPOS>MOLECULE
ASD08170298
  67   70    0    0    0
SMALL
NO_CHARGES


@<TRIPOS>ATOM
   1 C1            -0.0162     1.3436     0.0094 C.2     
   2 N2             0.0021    -0.0041     0.0020 N.am    
   3 C3             1.2158    -0.6830    -0.0132 C.2     
   4 S4             1.4076    -2.3853    -0.0242 S.3     
   5 C5             3.1580    -2.1679    -0.0404 C.2     
   6 C6             4.1900    -3.2660    -0.0570 C.3     
   7 C7             7.1356    -6.3838     3.2786 C.3     
   8 C8             7.3823    -6.6392     4.7431 C.2     
   9 S9             8.5907    -5.8400     5.7495 S.3     
  10 C10            8.0678    -6.7751     7.0862 C.2     
  11 N11            2.3916    -0.1314    -0.0272 N.2     
  12 N12            3.3971    -0.8949    -0.0360 N.2     
  13 N13            6.7415    -7.4810     5.4904 N.2     
  14 N14            7.1020    -7.5523     6.6983 N.2     
  15 O15            1.0258     1.9642     0.0028 O.2     
  16 C16           -1.3314     2.0792     0.0197 C.3     
  17 C17            4.5536    -3.6458     1.3798 C.3     
  18 C18            6.0928    -5.2751     3.1228 C.3     
  19 N19            8.5909    -6.7128     8.3733 N.am    
  20 C20            8.0910    -7.5042     9.3429 C.2     
  21 C21            8.6578    -7.4367    10.7376 C.3     
  22 O22            7.1849    -8.2707     9.0931 O.2     
  23 C23           -1.0722     3.5871     0.0266 C.3     
  24 C24            7.9185    -8.4292    11.6372 C.3     
  25 S25            5.7958    -4.9677     1.3599 S.3     
  26 C26            8.5646    -8.4510    12.9985 C.ar    
  27 O27            6.5523    -8.0303    11.7647 O.3     
  28 C28            9.5222    -9.4032    13.2940 C.ar    
  29 C29            8.2038    -7.5152    13.9499 C.ar    
  30 C30            8.7964    -7.5352    15.1986 C.ar    
  31 C31            9.7496    -8.4912    15.4961 C.ar    
  32 C32           10.1148    -9.4232    14.5427 C.ar    
  33 O33           -0.4246     3.9535     1.2466 O.3     
  34 C34           -2.3827     4.3225    -0.0870 C.ar    
  35 C35           -2.8361     4.7398    -1.3244 C.ar    
  36 C36           -3.1341     4.5750     1.0455 C.ar    
  37 C37           -4.3361     5.2496     0.9413 C.ar    
  38 C38           -4.7866     5.6722    -0.2954 C.ar    
  39 C39           -4.0381     5.4144    -1.4286 C.ar    
  40 H40           -0.8313    -0.5005     0.0073 H       
  41 H41            3.7851    -4.1373    -0.5717 H       
  42 H42            5.0822    -2.9183    -0.5777 H       
  43 H43            8.0663    -6.0769     2.8014 H       
  44 H44            6.7692    -7.2959     2.8074 H       
  45 H45           -1.9035     1.8130    -0.8691 H       
  46 H46           -1.8951     1.8033     0.9108 H       
  47 H47            4.9585    -2.7745     1.8946 H       
  48 H48            3.6614    -3.9935     1.9006 H       
  49 H49            5.1621    -5.5820     3.6000 H       
  50 H50            6.4592    -4.3630     3.5940 H       
  51 H51            9.3156    -6.0998     8.5731 H       
  52 H52            9.7177    -7.6896    10.7117 H       
  53 H53            8.5346    -6.4278    11.1315 H       
  54 H54           -0.4338     3.8499    -0.8168 H       
  55 H55            7.9667    -9.4249    11.1962 H       
  56 H56            6.4335    -7.1518    12.1510 H       
  57 H57            9.8070   -10.1317    12.5494 H       
  58 H58            7.4592    -6.7683    13.7174 H       
  59 H59            8.5151    -6.8036    15.9416 H       
  60 H60           10.2129    -8.5065    16.4715 H       
  61 H61           10.8594   -10.1701    14.7751 H       
  62 H62           -0.9368     3.7483     2.0408 H       
  63 H63           -2.2510     4.5390    -2.2097 H       
  64 H64           -2.7821     4.2448     2.0117 H       
  65 H65           -4.9235     5.4462     1.8260 H       
  66 H66           -5.7259     6.1989    -0.3768 H       
  67 H67           -4.3901     5.7445    -2.3948 H       
@<TRIPOS>BOND
   1    1    2 am
   2    1   15 2
   3    1   16 1
   4    2    3 1
   5    2   40 1
   6    3    4 1
   7    3   11 2
   8    4    5 1
   9    5    6 1
  10    5   12 2
  11    6   17 1
  12    6   41 1
  13    6   42 1
  14    7    8 1
  15    7   18 1
  16    7   43 1
  17    7   44 1
  18    8    9 1
  19    8   13 2
  20    9   10 1
  21   10   19 1
  22   10   14 2
  23   11   12 1
  24   13   14 1
  25   16   23 1
  26   16   45 1
  27   16   46 1
  28   17   25 1
  29   17   47 1
  30   17   48 1
  31   18   25 1
  32   18   49 1
  33   18   50 1
  34   19   20 am
  35   19   51 1
  36   20   21 1
  37   20   22 2
  38   21   24 1
  39   21   52 1
  40   21   53 1
  41   23   33 1
  42   23   34 1
  43   23   54 1
  44   24   26 1
  45   24   27 1
  46   24   55 1
  47   26   28 ar
  48   26   29 ar
  49   27   56 1
  50   28   32 ar
  51   28   57 1
  52   29   30 ar
  53   29   58 1
  54   30   31 ar
  55   30   59 1
  56   31   32 ar
  57   31   60 1
  58   32   61 1
  59   33   62 1
  60   34   35 ar
  61   34   36 ar
  62   35   39 ar
  63   35   63 1
  64   36   37 ar
  65   36   64 1
  66   37   38 ar
  67   37   65 1
  68   38   39 ar
  69   38   66 1
  70   39   67 1

#	End of record

