#	Name: ASD01881468
#	Creating user name:	WinNT
#	Creation time:	15. 06. 2019 19:42

#	Modifying user name:	WinNT
#	Modification time:	15. 06. 2019 19:42

#	Program:	/corina/corina34_cracker 3.40 0067  02.08.2006

@<TRIPOS>MOLECULE
ASD01881468
  41   44    0    0    0
SMALL
NO_CHARGES


@<TRIPOS>ATOM
   1 C1             0.1971     1.2243     1.7642 C.2     
   2 C2             0.2083    -0.1658     1.5515 C.2     
   3 C3             1.2687    -0.7306     0.8660 C.2     
   4 C4             2.3138     0.1020     0.3967 C.2     
   5 C5             2.2740     1.4293     0.6168 C.2     
   6 N6             1.2311     1.9960     1.2921 N.pl3   
   7 N7            -0.2067     3.2501     2.2912 N.2     
   8 N8            -0.6527     2.0452     2.3620 N.2     
   9 C9             0.9336     3.2753     1.6508 C.2     
  10 C10            1.7652     4.4981     1.3604 C.3     
  11 C11            1.3406     5.0966     0.0179 C.3     
  12 F12           -0.0108     5.4541     0.0733 F       
  13 F13            2.1126     6.2318    -0.2517 F       
  14 F14            1.5317     4.1512    -0.9955 F       
  15 C15            1.3110    -2.1917     0.6257 C.ar    
  16 C16            1.2400    -2.6884    -0.6759 C.ar    
  17 C17            1.2795    -4.0487    -0.8961 C.ar    
  18 C18            1.3896    -4.9244     0.1763 C.ar    
  19 C19            1.4605    -4.4332     1.4735 C.ar    
  20 C20            1.4277    -3.0738     1.7002 C.ar    
  21 O21            1.4274    -6.2643    -0.0440 O.3     
  22 C22            0.2517    -6.9456    -0.0362 C.ar    
  23 C23           -0.9484    -6.2594     0.0838 C.ar    
  24 C24           -2.1422    -6.9543     0.0910 C.ar    
  25 C25           -2.1420    -8.3324    -0.0213 C.ar    
  26 C26           -0.9476    -9.0186    -0.1410 C.ar    
  27 C27            0.2488    -8.3282    -0.1540 C.ar    
  28 Cl28          -1.0887    -1.1578     2.1408 Cl      
  29 H29            3.1460    -0.3297    -0.1396 H       
  30 H30            3.0771     2.0541     0.2547 H       
  31 H31            1.6163     5.2347     2.1500 H       
  32 H32            2.8181     4.2196     1.3173 H       
  33 H33            1.1537    -2.0081    -1.5102 H       
  34 H34            1.2246    -4.4339    -1.9036 H       
  35 H35            1.5457    -5.1169     2.3052 H       
  36 H36            1.4878    -2.6923     2.7087 H       
  37 H37           -0.9490    -5.1830     0.1719 H       
  38 H38           -3.0765    -6.4207     0.1847 H       
  39 H39           -3.0765    -8.8739    -0.0151 H       
  40 H40           -0.9502   -10.0951    -0.2285 H       
  41 H41            1.1812    -8.8642    -0.2520 H       
@<TRIPOS>BOND
   1    1    2 1
   2    1    6 1
   3    1    8 2
   4    2    3 2
   5    2   28 1
   6    3    4 1
   7    3   15 1
   8    4    5 2
   9    4   29 1
  10    5    6 1
  11    5   30 1
  12    6    9 1
  13    7    8 1
  14    7    9 2
  15    9   10 1
  16   10   11 1
  17   10   31 1
  18   10   32 1
  19   11   12 1
  20   11   13 1
  21   11   14 1
  22   15   16 ar
  23   15   20 ar
  24   16   17 ar
  25   16   33 1
  26   17   18 ar
  27   17   34 1
  28   18   19 ar
  29   18   21 1
  30   19   20 ar
  31   19   35 1
  32   20   36 1
  33   21   22 1
  34   22   23 ar
  35   22   27 ar
  36   23   24 ar
  37   23   37 1
  38   24   25 ar
  39   24   38 1
  40   25   26 ar
  41   25   39 1
  42   26   27 ar
  43   26   40 1
  44   27   41 1

#	End of record

