#	Name: ASD03331280
#	Creating user name:	WinNT
#	Creation time:	15. 06. 2019 20:38

#	Modifying user name:	WinNT
#	Modification time:	15. 06. 2019 20:38

#	Program:	/corina/corina34_cracker 3.40 0067  02.08.2006

@<TRIPOS>MOLECULE
ASD03331280
  42   45    0    0    0
SMALL
NO_CHARGES


@<TRIPOS>ATOM
   1 N1            -0.0177     1.4669     0.0055 N.am    
   2 C2             0.0027    -0.0037     0.0030 C.3     
   3 C3             0.9022    -0.4761    -1.1442 C.3     
   4 N4             2.2194     0.1632    -1.0246 N.3     
   5 C5             2.1177     1.6224    -1.1603 C.3     
   6 C6             1.2681     2.1808    -0.0138 C.3     
   7 C7            -1.1838     2.1425     0.0194 C.2     
   8 O8            -2.2364     1.5401    -0.0665 O.2     
   9 N9            -1.1831     3.4859     0.1284 N.am    
  10 C10           -2.3770     4.1915     0.0336 C.2     
  11 N11           -2.4872     5.4799     0.1241 N.2     
  12 C12            3.1647    -0.3919    -2.0024 C.3     
  13 C13            4.4178     0.4451    -2.0207 C.ar    
  14 C14            5.4667     0.1349    -1.1759 C.ar    
  15 C15            6.6183     0.9002    -1.1887 C.ar    
  16 C16            6.7232     1.9804    -2.0492 C.ar    
  17 C17            5.6662     2.2928    -2.9011 C.ar    
  18 C18            4.5179     1.5184    -2.8869 C.ar    
  19 S19           -3.9129     3.4870    -0.2266 S.3     
  20 C20           -4.6623     5.0810    -0.1881 C.2     
  21 C21           -3.7015     5.9852     0.0100 C.2     
  22 O22            7.7295     2.8794    -2.2550 O.3     
  23 C23            7.4419     3.4944    -3.5247 C.3     
  24 O24            6.0106     3.3873    -3.6403 O.3     
  25 H25            0.3987    -0.3660     0.9517 H       
  26 H26           -1.0082    -0.3837    -0.1441 H       
  27 H27            1.0175    -1.5588    -1.0938 H       
  28 H28            0.4501    -0.2020    -2.0974 H       
  29 H29            3.1146     2.0616    -1.1216 H       
  30 H30            1.6487     1.8673    -2.1133 H       
  31 H31            1.0937     3.2451    -0.1720 H       
  32 H32            1.7857     2.0285     0.9333 H       
  33 H33           -0.3495     3.9603     0.2730 H       
  34 H34            3.4156    -1.4156    -1.7245 H       
  35 H35            2.7090    -0.3855    -2.9925 H       
  36 H36            5.3865    -0.7068    -0.5039 H       
  37 H37            7.4363     0.6557    -0.5271 H       
  38 H38            3.6970     1.7581    -3.5465 H       
  39 H39           -5.7151     5.2899    -0.3073 H       
  40 H40           -3.9012     7.0447     0.0735 H       
  41 H41            7.7487     4.5404    -3.5219 H       
  42 H42            7.9330     2.9524    -4.3329 H       
@<TRIPOS>BOND
   1    1    2 1
   2    1    6 1
   3    1    7 am
   4    2    3 1
   5    2   25 1
   6    2   26 1
   7    3    4 1
   8    3   27 1
   9    3   28 1
  10    4    5 1
  11    4   12 1
  12    5    6 1
  13    5   29 1
  14    5   30 1
  15    6   31 1
  16    6   32 1
  17    7    8 2
  18    7    9 am
  19    9   10 1
  20    9   33 1
  21   10   11 2
  22   10   19 1
  23   11   21 1
  24   12   13 1
  25   12   34 1
  26   12   35 1
  27   13   14 ar
  28   13   18 ar
  29   14   15 ar
  30   14   36 1
  31   15   16 ar
  32   15   37 1
  33   16   17 ar
  34   16   22 1
  35   17   18 ar
  36   17   24 1
  37   18   38 1
  38   19   20 1
  39   20   21 2
  40   20   39 1
  41   21   40 1
  42   22   23 1
  43   23   24 1
  44   23   41 1
  45   23   42 1

#	End of record

