#	Name: ASD00170188
#	Creating user name:	WinNT
#	Creation time:	15. 06. 2019 18:31

#	Modifying user name:	WinNT
#	Modification time:	15. 06. 2019 18:31

#	Program:	/corina/corina34_cracker 3.40 0067  02.08.2006

@<TRIPOS>MOLECULE
ASD00170188
  33   34    0    0    0
SMALL
NO_CHARGES


@<TRIPOS>ATOM
   1 C1            -0.0160     1.3304     0.0094 C.2     
   2 C2             0.0021    -0.0041     0.0020 C.2     
   3 C3            -1.3370    -0.5763     0.0230 C.2     
   4 C4            -2.3289     0.3653     0.0386 C.2     
   5 S5            -1.6681     1.9332     0.0360 S.3     
   6 C6             1.2106     2.2190     0.0024 C.3     
   7 C7             2.1912     1.7488    -1.0706 C.3     
   8 C8             3.1478     0.7261    -0.4639 C.3     
   9 C9             2.4230    -0.0926     0.6021 C.3     
  10 C10            1.2628    -0.8507    -0.0355 C.3     
  11 N11           -3.6808     0.0823     0.0574 N.pl3   
  12 C12           -1.5955    -2.0157     0.0262 C.2     
  13 O13           -1.7333    -2.6789    -1.1406 O.3     
  14 O14           -1.6863    -2.6151     1.0810 O.2     
  15 C15           -1.9844    -4.0835    -1.0627 C.3     
  16 C16           -2.1103    -4.6582    -2.4751 C.3     
  17 H17            0.9117     3.2463    -0.2059 H       
  18 H18            1.6942     2.1756     0.9783 H       
  19 H19            1.6401     1.2898    -1.8914 H       
  20 H20            2.7586     2.6013    -1.4440 H       
  21 H21            3.5108     0.0605    -1.2471 H       
  22 H22            3.9925     1.2446    -0.0104 H       
  23 H23            3.1184    -0.8027     1.0495 H       
  24 H24            2.0398     0.5749     1.3740 H       
  25 H25            1.0922    -1.7775     0.5121 H       
  26 H26            1.5099    -1.0852    -1.0709 H       
  27 H27           -3.9834    -0.8393     0.0603 H       
  28 H28           -4.3275     0.8051     0.0678 H       
  29 H29           -1.1595    -4.5718    -0.5439 H       
  30 H30           -2.9112    -4.2571    -0.5158 H       
  31 H31           -2.3019    -5.7296    -2.4156 H       
  32 H32           -2.9353    -4.1698    -2.9938 H       
  33 H33           -1.1836    -4.4845    -3.0219 H       
@<TRIPOS>BOND
   1    1    2 2
   2    1    6 1
   3    1    5 1
   4    2    3 1
   5    2   10 1
   6    3    4 2
   7    3   12 1
   8    4    5 1
   9    4   11 1
  10    6    7 1
  11    6   17 1
  12    6   18 1
  13    7    8 1
  14    7   19 1
  15    7   20 1
  16    8    9 1
  17    8   21 1
  18    8   22 1
  19    9   10 1
  20    9   23 1
  21    9   24 1
  22   10   25 1
  23   10   26 1
  24   11   27 1
  25   11   28 1
  26   12   13 1
  27   12   14 2
  28   13   15 1
  29   15   16 1
  30   15   29 1
  31   15   30 1
  32   16   31 1
  33   16   32 1
  34   16   33 1

#	End of record

