#	Name: ASD03730845
#	Creating user name:	WinNT
#	Creation time:	15. 06. 2019 20:44

#	Modifying user name:	WinNT
#	Modification time:	15. 06. 2019 20:44

#	Program:	/corina/corina34_cracker 3.40 0067  02.08.2006

@<TRIPOS>MOLECULE
ASD03730845
  68   74    0    0    0
SMALL
NO_CHARGES


@<TRIPOS>ATOM
   1 C1             1.3708    -1.2048    -2.4867 C.2     
   2 C2             0.4779    -1.1518    -1.3100 C.ar    
   3 C3             0.7362    -0.2525    -0.2738 C.ar    
   4 C4            -0.1010    -0.2083     0.8215 C.ar    
   5 C5            -1.1948    -1.0528     0.8948 C.ar    
   6 C6            -1.4565    -1.9463    -0.1285 C.ar    
   7 C7            -0.6303    -1.9967    -1.2324 C.ar    
   8 O8             2.3116    -0.4395    -2.5708 O.2     
   9 N9             1.1452    -2.1051    -3.4639 N.am    
  10 C10            1.8730    -2.0402    -4.6563 C.ar    
  11 C11            1.3643    -2.6139    -5.8143 C.ar    
  12 C12            2.0856    -2.5480    -6.9902 C.ar    
  13 C13            3.3132    -1.9120    -7.0154 C.ar    
  14 C14            3.8226    -1.3397    -5.8641 C.ar    
  15 C15            3.1035    -1.3967    -4.6864 C.ar    
  16 C16            4.0980    -1.8429    -8.3000 C.3     
  17 C17            3.7124    -0.5756    -9.0657 C.3     
  18 C18            4.5092    -0.5054   -10.3699 C.3     
  19 C19            1.9272     0.6675    -0.3516 C.3     
  20 O20            0.1198    -0.7029     6.4709 O.3     
  21 C21            0.0790    -0.3753     7.8723 C.3     
  22 O22            1.3652     0.2218     8.1218 O.3     
  23 C23            1.7572     0.7580     6.9286 C.ar    
  24 C24            0.9917     0.1882     5.9138 C.ar    
  25 C25            2.7203     1.7023     6.6214 C.ar    
  26 C26            2.9334     2.0884     5.3015 C.ar    
  27 C27            2.1682     1.5062     4.2956 C.ar    
  28 C28            1.2030     0.5689     4.5992 C.ar    
  29 O29            3.8079     3.0021     4.7909 O.3     
  30 C30            2.6452     2.0985     2.9966 C.3     
  31 C31            3.9743     2.7634     3.3799 C.3     
  32 N32            2.0422     1.4242     0.8975 N.am    
  33 C33            2.8272     1.0573     1.9301 C.2     
  34 C34            1.6697     3.0853     2.4268 C.ar    
  35 C35            1.1052     4.2479     2.9021 C.ar    
  36 C36            0.2140     4.9570     2.1166 C.ar    
  37 C37           -0.1088     4.4951     0.8535 C.ar    
  38 C38            0.4533     3.3307     0.3734 C.ar    
  39 C39            1.3517     2.6105     1.1570 C.ar    
  40 O40            3.5408     0.0782     1.9865 O.2     
  41 H41            0.0979     0.4866     1.6240 H       
  42 H42           -1.8470    -1.0144     1.7548 H       
  43 H43           -2.3118    -2.6026    -0.0652 H       
  44 H44           -0.8384    -2.6913    -2.0328 H       
  45 H45            0.4780    -2.7983    -3.3401 H       
  46 H46            0.4058    -3.1114    -5.7952 H       
  47 H47            1.6906    -2.9940    -7.8911 H       
  48 H48            4.7818    -0.8441    -5.8870 H       
  49 H49            3.4998    -0.9457    -3.7887 H       
  50 H50            5.1640    -1.8205    -8.0738 H       
  51 H51            3.8743    -2.7181    -8.9100 H       
  52 H52            2.6464    -0.5980    -9.2919 H       
  53 H53            3.9361     0.2996    -8.4557 H       
  54 H54            4.2345     0.3974   -10.9154 H       
  55 H55            5.5752    -0.4831   -10.1437 H       
  56 H56            4.2854    -1.3806   -10.9799 H       
  57 H57            2.8317     0.0787    -0.5043 H       
  58 H58            1.7986     1.3586    -1.1846 H       
  59 H59           -0.7201     0.3375     8.0758 H       
  60 H60           -0.0480    -1.2761     8.4727 H       
  61 H61            3.3107     2.1427     7.4112 H       
  62 H62            0.6107     0.1305     3.8097 H       
  63 H63            4.1071     3.7019     2.8416 H       
  64 H64            4.8112     2.0893     3.1974 H       
  65 H65            1.3586     4.6066     3.8888 H       
  66 H66           -0.2282     5.8693     2.4887 H       
  67 H67           -0.8045     5.0487     0.2404 H       
  68 H68            0.1959     2.9761    -0.6138 H       
@<TRIPOS>BOND
   1    1    2 1
   2    1    8 2
   3    1    9 am
   4    2    3 ar
   5    2    7 ar
   6    3    4 ar
   7    3   19 1
   8    4    5 ar
   9    4   41 1
  10    5    6 ar
  11    5   42 1
  12    6    7 ar
  13    6   43 1
  14    7   44 1
  15    9   10 1
  16    9   45 1
  17   10   11 ar
  18   10   15 ar
  19   11   12 ar
  20   11   46 1
  21   12   13 ar
  22   12   47 1
  23   13   14 ar
  24   13   16 1
  25   14   15 ar
  26   14   48 1
  27   15   49 1
  28   16   17 1
  29   16   50 1
  30   16   51 1
  31   17   18 1
  32   17   52 1
  33   17   53 1
  34   18   54 1
  35   18   55 1
  36   18   56 1
  37   19   32 1
  38   19   57 1
  39   19   58 1
  40   20   21 1
  41   20   24 1
  42   21   22 1
  43   21   59 1
  44   21   60 1
  45   22   23 1
  46   23   24 ar
  47   23   25 ar
  48   24   28 ar
  49   25   26 ar
  50   25   61 1
  51   26   27 ar
  52   26   29 1
  53   27   28 ar
  54   27   30 1
  55   28   62 1
  56   29   31 1
  57   30   31 1
  58   30   33 1
  59   30   34 1
  60   31   63 1
  61   31   64 1
  62   32   33 am
  63   32   39 1
  64   33   40 2
  65   34   35 ar
  66   34   39 ar
  67   35   36 ar
  68   35   65 1
  69   36   37 ar
  70   36   66 1
  71   37   38 ar
  72   37   67 1
  73   38   39 ar
  74   38   68 1

#	End of record

