#	Name: ASD05720318
#	Creating user name:	WinNT
#	Creation time:	15. 06. 2019 21:02

#	Modifying user name:	WinNT
#	Modification time:	15. 06. 2019 21:02

#	Program:	/corina/corina34_cracker 3.40 0067  02.08.2006

@<TRIPOS>MOLECULE
ASD05720318
  78   83    0    0    0
SMALL
NO_CHARGES


@<TRIPOS>ATOM
   1 N1             0.0072     1.3227     0.1879 N.am    
   2 C2             0.0745     0.1001    -0.3752 C.2     
   3 O3             1.1377    -0.3215    -0.7879 O.2     
   4 N4            -1.0367    -0.6553    -0.4809 N.am    
   5 C5            -0.9899    -1.8795    -1.1622 C.ar    
   6 C6            -1.7903    -2.9355    -0.7478 C.ar    
   7 C7            -1.7441    -4.1415    -1.4184 C.ar    
   8 C8            -0.8971    -4.2981    -2.5079 C.ar    
   9 C9            -0.0969    -3.2415    -2.9226 C.ar    
  10 C10           -0.1473    -2.0340    -2.2548 C.ar    
  11 N11           -0.8498    -5.5203    -3.1874 N.3     
  12 C12            0.1074    -5.4668    -4.3012 C.3     
  13 C13            0.1882    -6.8424    -4.9673 C.3     
  14 N14           -1.1466    -7.2332    -5.4420 N.3     
  15 C15           -2.1037    -7.2866    -4.3281 C.3     
  16 C16           -2.1845    -5.9110    -3.6620 C.3     
  17 C17           -1.0968    -8.5164    -6.1554 C.3     
  18 C18            1.1746     2.0596     0.3984 C.ar    
  19 C19            1.1454     3.4469     0.3071 C.ar    
  20 C20            2.2954     4.1765     0.5144 C.ar    
  21 C21            3.4908     3.5218     0.8163 C.ar    
  22 C22            3.5170     2.1291     0.9073 C.ar    
  23 C23            2.3626     1.4051     0.7046 C.ar    
  24 C24            6.0699     6.1210     0.5452 C.ar    
  25 N25            6.9936     5.7660     1.4226 N.ar    
  26 C26            6.8450     4.6672     2.1575 C.ar    
  27 C27            5.6845     3.8843     1.9866 C.ar    
  28 C28            4.7277     4.3026     1.0389 C.ar    
  29 N29            4.9630     5.4158     0.3507 N.ar    
  30 N30            6.9058     2.9021     3.5353 N.2     
  31 N31            7.5916     4.0495     3.1174 N.pl3   
  32 C32            5.7859     2.7955     2.8786 C.2     
  33 O33            6.6169     8.7635    -2.5495 O.3     
  34 C34            5.3626     8.8208    -1.8649 C.3     
  35 C35            5.1377     7.5069    -1.1120 C.3     
  36 N36            6.2626     7.2752    -0.1943 N.3     
  37 C37            7.5337     7.2228    -0.9310 C.3     
  38 C38            7.7346     8.5396    -1.6857 C.3     
  39 C39            8.8878     4.5073     3.6240 C.3     
  40 C40            8.7841     4.7686     5.1279 C.3     
  41 C41            9.9452     3.4323     3.3648 C.3     
  42 H42           -0.8524     1.6925     0.4432 H       
  43 H43           -1.8688    -0.3518    -0.0854 H       
  44 H44           -2.4489    -2.8138     0.0995 H       
  45 H45           -2.3662    -4.9632    -1.0956 H       
  46 H46            0.5618    -3.3630    -3.7698 H       
  47 H47            0.4717    -1.2109    -2.5800 H       
  48 H48           -0.2247    -4.7284    -5.0310 H       
  49 H49            1.0907    -5.1877    -3.9226 H       
  50 H50            0.8758    -6.7977    -5.8118 H       
  51 H51            0.5464    -7.5758    -4.2448 H       
  52 H52           -3.0870    -7.5657    -4.7067 H       
  53 H53           -1.7716    -8.0250    -3.5984 H       
  54 H54           -2.8722    -5.9558    -2.8175 H       
  55 H55           -2.5427    -5.1776    -4.3845 H       
  56 H56           -0.7238    -9.2906    -5.4849 H       
  57 H57           -2.0977    -8.7818    -6.4958 H       
  58 H58           -0.4321    -8.4288    -7.0147 H       
  59 H59            0.2204     3.9528     0.0732 H       
  60 H60            2.2723     5.2539     0.4430 H       
  61 H61            4.4405     1.6199     1.1407 H       
  62 H62            2.3813     0.3279     0.7796 H       
  63 H63            5.0577     2.0067     2.9969 H       
  64 H64            5.3721     9.6492    -1.1564 H       
  65 H65            4.5600     8.9683    -2.5875 H       
  66 H66            4.2101     7.5677    -0.5428 H       
  67 H67            5.0746     6.6850    -1.8252 H       
  68 H68            8.3551     7.0762    -0.2297 H       
  69 H69            7.5089     6.3963    -1.6413 H       
  70 H70            8.6474     8.4836    -2.2787 H       
  71 H71            7.8131     9.3598    -0.9721 H       
  72 H72            9.1726     5.4276     3.1141 H       
  73 H73            8.4993     3.8483     5.6378 H       
  74 H74            9.7485     5.1093     5.5048 H       
  75 H75            8.0308     5.5344     5.3125 H       
  76 H76           10.0191     3.2462     2.2933 H       
  77 H77           10.9096     3.7730     3.7417 H       
  78 H78            9.6604     2.5120     3.8747 H       
@<TRIPOS>BOND
   1    1    2 am
   2    1   18 1
   3    1   42 1
   4    2    3 2
   5    2    4 am
   6    4    5 1
   7    4   43 1
   8    5    6 ar
   9    5   10 ar
  10    6    7 ar
  11    6   44 1
  12    7    8 ar
  13    7   45 1
  14    8    9 ar
  15    8   11 1
  16    9   10 ar
  17    9   46 1
  18   10   47 1
  19   11   12 1
  20   11   16 1
  21   12   13 1
  22   12   48 1
  23   12   49 1
  24   13   14 1
  25   13   50 1
  26   13   51 1
  27   14   15 1
  28   14   17 1
  29   15   16 1
  30   15   52 1
  31   15   53 1
  32   16   54 1
  33   16   55 1
  34   17   56 1
  35   17   57 1
  36   17   58 1
  37   18   19 ar
  38   18   23 ar
  39   19   20 ar
  40   19   59 1
  41   20   21 ar
  42   20   60 1
  43   21   22 ar
  44   21   28 1
  45   22   23 ar
  46   22   61 1
  47   23   62 1
  48   24   25 ar
  49   24   29 ar
  50   24   36 1
  51   25   26 ar
  52   26   27 ar
  53   26   31 1
  54   27   28 ar
  55   27   32 1
  56   28   29 ar
  57   30   31 1
  58   30   32 2
  59   31   39 1
  60   32   63 1
  61   33   34 1
  62   33   38 1
  63   34   35 1
  64   34   64 1
  65   34   65 1
  66   35   36 1
  67   35   66 1
  68   35   67 1
  69   36   37 1
  70   37   38 1
  71   37   68 1
  72   37   69 1
  73   38   70 1
  74   38   71 1
  75   39   40 1
  76   39   41 1
  77   39   72 1
  78   40   73 1
  79   40   74 1
  80   40   75 1
  81   41   76 1
  82   41   77 1
  83   41   78 1

#	End of record

