#	Name: ASD09116016
#	Creating user name:	WinNT
#	Creation time:	15. 06. 2019 21:20

#	Modifying user name:	WinNT
#	Modification time:	15. 06. 2019 21:20

#	Program:	/corina/corina34_cracker 3.40 0067  02.08.2006

@<TRIPOS>MOLECULE
ASD09116016
  71   77    0    0    0
SMALL
NO_CHARGES


@<TRIPOS>ATOM
   1 C1             5.4707    -1.3996    -2.1030 C.ar    
   2 C2             4.4272    -2.2525    -1.7421 C.ar    
   3 C3             4.2434    -3.4152    -2.4476 C.ar    
   4 N4             5.0782    -3.6767    -3.4539 N.ar    
   5 N5             6.0369    -2.8886    -3.7825 N.ar    
   6 C6             6.2770    -1.7432    -3.1531 C.ar    
   7 N7             3.2120    -4.2992    -2.1208 N.pl3   
   8 N8             2.2683    -4.1471    -1.0922 N.2     
   9 C9             1.4853    -5.1985    -1.1326 C.2     
  10 N10            1.8835    -6.0008    -2.1268 N.2     
  11 C11            2.9212    -5.4689    -2.7366 C.2     
  12 N12            0.4106    -5.4412    -0.2771 N.pl3   
  13 C13           -0.2803    -6.6571    -0.3485 C.ar    
  14 C14            0.3848    -7.8116    -0.7399 C.ar    
  15 C15           -1.6292    -6.7092    -0.0224 C.ar    
  16 C16           -2.3110    -7.9098    -0.0930 C.ar    
  17 C17           -1.6454    -9.0641    -0.4905 C.ar    
  18 C18           -0.2960    -9.0113    -0.8111 C.ar    
  19 N19            3.6005    -6.0134    -3.8100 N.pl3   
  20 N20           -2.3357   -10.2816    -0.5625 N.3     
  21 F21           -3.6231    -7.9617     0.2245 F       
  22 C22           -2.3031   -10.8253    -1.9262 C.3     
  23 C23           -3.7156   -10.1333    -0.0828 C.3     
  24 C24           -4.3919   -11.5054    -0.0384 C.3     
  25 C25           -4.3826   -12.1193    -1.4411 C.3     
  26 C26           -2.9372   -12.2181    -1.9368 C.3     
  27 N27           -4.9781   -13.4613    -1.3937 N.3     
  28 C28           -6.3991   -13.3954    -1.0059 C.3     
  29 C29           -4.8793   -14.1315    -2.7078 C.3     
  30 C30           -6.1609   -14.9958    -2.8084 C.3     
  31 C31           -7.2108   -14.0802    -2.1255 C.3     
  32 C32            5.5611    -0.1603    -1.2477 C.3     
  33 C33            4.2105     0.5692    -1.3507 C.3     
  34 C34            3.0669    -0.3652    -0.9560 C.3     
  35 C35            3.6131    -1.7522    -0.5751 C.3     
  36 C36            5.7212    -0.6194     0.2120 C.3     
  37 C37            4.5776    -1.5535     0.6070 C.3     
  38 Cl38           7.5886    -0.7163    -3.6419 Cl      
  39 H39            0.1418    -4.7678     0.3672 H       
  40 H40            1.4349    -7.7714    -0.9892 H       
  41 H41           -2.1454    -5.8123     0.2866 H       
  42 H42            0.2209    -9.9079    -1.1198 H       
  43 H43            3.3202    -6.8653    -4.1797 H       
  44 H44            4.3575    -5.5437    -4.1936 H       
  45 H45           -2.8605   -10.1673    -2.5929 H       
  46 H46           -1.2694   -10.8942    -2.2651 H       
  47 H47           -3.7079    -9.6997     0.9172 H       
  48 H48           -4.2665    -9.4786    -0.7581 H       
  49 H49           -3.8496   -12.1564     0.6473 H       
  50 H50           -5.4210   -11.3931     0.3028 H       
  51 H51           -4.9577   -11.4883    -2.1187 H       
  52 H52           -2.9270   -12.6148    -2.9520 H       
  53 H53           -2.3720   -12.8802    -1.2810 H       
  54 H54           -6.5509   -13.9212    -0.0632 H       
  55 H55           -6.7085   -12.3550    -0.9067 H       
  56 H56           -4.8556   -13.3933    -3.5094 H       
  57 H57           -3.9918   -14.7631    -2.7459 H       
  58 H58           -6.4246   -15.1835    -3.8492 H       
  59 H59           -6.0446   -15.9317    -2.2618 H       
  60 H60           -8.0235   -14.6725    -1.7052 H       
  61 H61           -7.5946   -13.3421    -2.8298 H       
  62 H62            6.3823     0.4813    -1.5672 H       
  63 H63            4.2158     1.4330    -0.6859 H       
  64 H64            4.0613     0.9083    -2.3759 H       
  65 H65            2.5331     0.0580    -0.1052 H       
  66 H66            2.3787    -0.4669    -1.7951 H       
  67 H67            2.8049    -2.4422    -0.3323 H       
  68 H68            6.6700    -1.1445     0.3226 H       
  69 H69            5.7169     0.2523     0.8664 H       
  70 H70            4.0337    -1.1220     1.4473 H       
  71 H71            4.9871    -2.5189     0.9042 H       
@<TRIPOS>BOND
   1    1    2 ar
   2    1   32 1
   3    1    6 ar
   4    2    3 ar
   5    2   35 1
   6    3    4 ar
   7    3    7 1
   8    4    5 ar
   9    5    6 ar
  10    6   38 1
  11    7    8 1
  12    7   11 1
  13    8    9 2
  14    9   10 1
  15    9   12 1
  16   10   11 2
  17   11   19 1
  18   12   13 1
  19   12   39 1
  20   13   14 ar
  21   13   15 ar
  22   14   18 ar
  23   14   40 1
  24   15   16 ar
  25   15   41 1
  26   16   17 ar
  27   16   21 1
  28   17   18 ar
  29   17   20 1
  30   18   42 1
  31   19   43 1
  32   19   44 1
  33   20   22 1
  34   20   23 1
  35   22   26 1
  36   22   45 1
  37   22   46 1
  38   23   24 1
  39   23   47 1
  40   23   48 1
  41   24   25 1
  42   24   49 1
  43   24   50 1
  44   25   26 1
  45   25   27 1
  46   25   51 1
  47   26   52 1
  48   26   53 1
  49   27   28 1
  50   27   29 1
  51   28   31 1
  52   28   54 1
  53   28   55 1
  54   29   30 1
  55   29   56 1
  56   29   57 1
  57   30   31 1
  58   30   58 1
  59   30   59 1
  60   31   60 1
  61   31   61 1
  62   32   33 1
  63   32   36 1
  64   32   62 1
  65   33   34 1
  66   33   63 1
  67   33   64 1
  68   34   35 1
  69   34   65 1
  70   34   66 1
  71   35   37 1
  72   35   67 1
  73   36   37 1
  74   36   68 1
  75   36   69 1
  76   37   70 1
  77   37   71 1

#	End of record

