#	Name: ASD03180039
#	Creating user name:	WinNT
#	Creation time:	15. 06. 2019 20:33

#	Modifying user name:	WinNT
#	Modification time:	15. 06. 2019 20:33

#	Program:	/corina/corina34_cracker 3.40 0067  02.08.2006

@<TRIPOS>MOLECULE
ASD03180039
  66   70    0    0    0
SMALL
NO_CHARGES


@<TRIPOS>ATOM
   1 O1            -0.0673     0.3611    -0.0764 O.3     
   2 O2             6.2520    -3.7910    -0.4839 O.3     
   3 O3             3.8889    -2.8017    -1.1044 O.2     
   4 O4             0.5830     2.4466    -0.4513 O.2     
   5 O5             8.6921     0.7513     0.7569 O.3     
   6 O6             7.2222     1.8615    -0.4639 O.2     
   7 O7            -2.0215    -2.0126     2.7116 O.3     
   8 O8             5.1716    -4.9787     1.0486 O.2     
   9 C9             5.1033     0.2795    -0.2269 C.3     
  10 C10            2.6310    -0.4115    -0.2636 C.3     
  11 C11            4.0443    -0.7573     0.1324 C.3     
  12 C12            2.2883     0.9871     0.2743 C.3     
  13 C13            4.6825     1.6732     0.2295 C.3     
  14 C14            6.3999    -0.1299     0.4924 C.3     
  15 C15            3.2732     2.0119    -0.2667 C.3     
  16 C16            1.6413    -1.3717     0.4197 C.3     
  17 C17            4.5120    -2.1094    -0.3437 C.2     
  18 C18            6.8918    -1.4908     0.0085 C.3     
  19 C19            5.3986     0.3100    -1.7262 C.3     
  20 C20            2.3899    -0.4651    -1.7686 C.3     
  21 C21            5.8445    -2.5835     0.2120 C.3     
  22 C22            0.2122    -1.0458    -0.0022 C.3     
  23 C23            0.8706     1.3095    -0.1205 C.2     
  24 C24            7.4681     0.9009     0.2265 C.2     
  25 C25           -0.7350    -1.6820     0.9822 C.2     
  26 C26           -1.2978    -2.9760     0.8942 C.2     
  27 C27           -1.2071    -1.1279     2.1133 C.2     
  28 C28            5.8468    -4.9645     0.0390 C.2     
  29 C29            9.6702     1.7821     0.4588 C.3     
  30 C30           -2.0803    -3.1352     1.9767 C.2     
  31 C31            6.2237    -6.2342    -0.6154 C.ar    
  32 C32            5.8054    -7.4523    -0.0761 C.ar    
  33 C33            6.9950    -6.2213    -1.7792 C.ar    
  34 C34            6.1610    -8.6341    -0.6922 C.ar    
  35 C35            7.3434    -7.4105    -2.3852 C.ar    
  36 C36            6.9307    -8.6143    -1.8419 C.ar    
  37 H37            4.0455    -0.8208     1.2523 H       
  38 H38            2.3566     0.9683     1.3674 H       
  39 H39            4.7007     1.7173     1.3202 H       
  40 H40            5.3744     2.4191    -0.1687 H       
  41 H41            6.2018    -0.1721     1.5651 H       
  42 H42            3.2470     2.0462    -1.3510 H       
  43 H43            2.9974     3.0041     0.1136 H       
  44 H44            1.8889    -2.3945     0.1323 H       
  45 H45            1.7433    -1.2678     1.5010 H       
  46 H46            7.1878    -1.4487    -1.0377 H       
  47 H47            7.7879    -1.7604     0.5887 H       
  48 H48            4.5307     0.6976    -2.2597 H       
  49 H49            6.2579     0.9537    -1.9142 H       
  50 H50            5.6178    -0.6995    -2.0739 H       
  51 H51            2.7222    -1.4283    -2.1557 H       
  52 H52            1.3262    -0.3396    -1.9708 H       
  53 H53            2.9489     0.3344    -2.2548 H       
  54 H54            5.7336    -2.7957     1.2756 H       
  55 H55            0.0131    -1.5083    -0.9801 H       
  56 H56           -1.1317    -3.6980     0.1083 H       
  57 H57           -0.9718    -0.1390     2.4782 H       
  58 H58            9.8229     1.8374    -0.6190 H       
  59 H59            9.3082     2.7431     0.8243 H       
  60 H60           10.6139     1.5397     0.9475 H       
  61 H61           -2.6575    -4.0164     2.2147 H       
  62 H62            5.2052    -7.4691     0.8216 H       
  63 H63            7.3178    -5.2824    -2.2043 H       
  64 H64            5.8382    -9.5770    -0.2762 H       
  65 H65            7.9400    -7.4020    -3.2854 H       
  66 H66            7.2066    -9.5426    -2.3201 H       
@<TRIPOS>BOND
   1    1   22 1
   2    1   23 1
   3    2   28 1
   4    2   21 1
   5    3   17 2
   6    4   23 2
   7    5   24 1
   8    5   29 1
   9    6   24 2
  10    7   27 1
  11    7   30 1
  12    8   28 2
  13    9   11 1
  14    9   13 1
  15    9   19 1
  16    9   14 1
  17   10   11 1
  18   10   16 1
  19   10   20 1
  20   10   12 1
  21   11   17 1
  22   11   37 1
  23   12   15 1
  24   12   23 1
  25   12   38 1
  26   13   15 1
  27   13   39 1
  28   13   40 1
  29   14   18 1
  30   14   24 1
  31   14   41 1
  32   15   42 1
  33   15   43 1
  34   16   22 1
  35   16   44 1
  36   16   45 1
  37   17   21 1
  38   18   21 1
  39   18   46 1
  40   18   47 1
  41   19   48 1
  42   19   49 1
  43   19   50 1
  44   20   51 1
  45   20   52 1
  46   20   53 1
  47   21   54 1
  48   22   25 1
  49   22   55 1
  50   25   26 1
  51   25   27 2
  52   26   30 2
  53   26   56 1
  54   27   57 1
  55   28   31 1
  56   29   58 1
  57   29   59 1
  58   29   60 1
  59   30   61 1
  60   31   32 ar
  61   31   33 ar
  62   32   34 ar
  63   32   62 1
  64   33   35 ar
  65   33   63 1
  66   34   36 ar
  67   34   64 1
  68   35   36 ar
  69   35   65 1
  70   36   66 1

#	End of record

