#	Name: ASD01812595
#	Creating user name:	WinNT
#	Creation time:	15. 06. 2019 19:28

#	Modifying user name:	WinNT
#	Modification time:	15. 06. 2019 19:28

#	Program:	/corina/corina34_cracker 3.40 0067  02.08.2006

@<TRIPOS>MOLECULE
ASD01812595
  45   49    0    0    0
SMALL
NO_CHARGES


@<TRIPOS>ATOM
   1 C1            -0.0184     1.5028     0.0103 C.3     
   2 C2             0.0021    -0.0041     0.0020 C.2     
   3 N3             0.0081    -0.7658    -1.0542 N.2     
   4 N4             0.0288    -2.1121    -0.6761 N.pl3   
   5 H5             0.0368    -2.8673    -1.2848 H       
   6 C6             0.0360    -2.1939     0.6921 C.ar    
   7 C7             0.0543    -3.2585     1.5912 C.ar    
   8 C8             0.0561    -3.0213     2.9340 C.ar    
   9 C9             0.0398    -1.7117     3.4284 C.ar    
  10 C10            0.0215    -0.6361     2.5542 C.ar    
  11 C11            0.0250    -0.8709     1.1766 C.ar    
  12 C12            0.0417    -1.4741     4.8932 C.ar    
  13 C13            0.0196    -0.1728     5.3899 C.ar    
  14 C14            0.0210     0.0439     6.7554 C.ar    
  15 F15           -0.0004     1.3056     7.2382 F       
  16 C16            0.0437    -1.0305     7.6291 C.ar    
  17 C17            0.0440    -0.7893     9.1167 C.3     
  18 N18           -1.3369    -0.7367     9.6032 N.am    
  19 C19           -2.1667     0.4700     9.6907 C.3     
  20 C20           -3.4994     0.0288    10.2460 C.ar    
  21 N21           -4.6089     0.6722    10.5321 N.ar    
  22 C22           -5.6664     0.0501    11.0202 C.ar    
  23 C23           -5.6491    -1.3134    11.2522 C.ar    
  24 C24           -4.5033    -2.0363    10.9669 C.ar    
  25 C25           -3.4001    -1.3492    10.4506 C.ar    
  26 C26           -2.0547    -1.7871    10.0377 C.2     
  27 O27           -1.6514    -2.9328    10.0853 O.2     
  28 C28            0.0656    -2.3260     7.1397 C.ar    
  29 F29            0.0872    -3.3704     7.9964 F       
  30 C30            0.0596    -2.5519     5.7757 C.ar    
  31 H31            1.0042     1.8801     0.0026 H       
  32 H32           -0.5455     1.8639    -0.8728 H       
  33 H33           -0.5286     1.8543     0.9071 H       
  34 H34            0.0666    -4.2739     1.2235 H       
  35 H35            0.0700    -3.8525     3.6234 H       
  36 H36            0.0086     0.3746     2.9345 H       
  37 H37            0.0019     0.6656     4.7093 H       
  38 H38            0.5745    -1.6000     9.6161 H       
  39 H39            0.5411     0.1567     9.3313 H       
  40 H40           -1.7038     1.1950    10.3602 H       
  41 H41           -2.2995     0.9057     8.7004 H       
  42 H42           -6.5595     0.6152    11.2423 H       
  43 H43           -6.5210    -1.8093    11.6524 H       
  44 H44           -4.4624    -3.1017    11.1387 H       
  45 H45            0.0722    -3.5625     5.3949 H       
@<TRIPOS>BOND
   1    1    2 1
   2    1   31 1
   3    1   32 1
   4    1   33 1
   5    2   11 1
   6    2    3 2
   7    3    4 1
   8    4    5 1
   9    4    6 1
  10    6   11 ar
  11    6    7 ar
  12    7    8 ar
  13    7   34 1
  14    8    9 ar
  15    8   35 1
  16    9   10 ar
  17    9   12 1
  18   10   11 ar
  19   10   36 1
  20   12   30 ar
  21   12   13 ar
  22   13   14 ar
  23   13   37 1
  24   14   15 1
  25   14   16 ar
  26   16   17 1
  27   16   28 ar
  28   17   18 1
  29   17   38 1
  30   17   39 1
  31   18   26 am
  32   18   19 1
  33   19   20 1
  34   19   40 1
  35   19   41 1
  36   20   25 ar
  37   20   21 ar
  38   21   22 ar
  39   22   23 ar
  40   22   42 1
  41   23   24 ar
  42   23   43 1
  43   24   25 ar
  44   24   44 1
  45   25   26 1
  46   26   27 2
  47   28   29 1
  48   28   30 ar
  49   30   45 1

#	End of record

