#	Name: ASD04590506
#	Creating user name:	WinNT
#	Creation time:	15. 06. 2019 20:50

#	Modifying user name:	WinNT
#	Modification time:	15. 06. 2019 20:50

#	Program:	/corina/corina34_cracker 3.40 0067  02.08.2006

@<TRIPOS>MOLECULE
ASD04590506
  54   58    0    0    0
SMALL
NO_CHARGES


@<TRIPOS>ATOM
   1 C1            -0.0630     1.3090     0.3423 C.ar    
   2 C2            -0.0123    -0.0690     0.4957 C.ar    
   3 C3             2.3588    -0.0293     0.1249 C.ar    
   4 C4             2.3013     1.3672    -0.0300 C.ar    
   5 C5             1.0856     2.0263     0.0808 C.ar    
   6 N6             3.6540    -0.3970    -0.0332 N.2     
   7 C7             4.3870     0.6636    -0.2715 C.2     
   8 N8             3.5961     1.7810    -0.2798 N.pl3   
   9 C9             5.8473     0.6542    -0.4968 C.2     
  10 C10            6.6816    -0.4872    -0.4925 C.2     
  11 C11            7.9488    -0.0739    -0.7374 C.2     
  12 N12            7.9243     1.2762    -0.8917 N.pl3   
  13 N13            6.6004     1.7084    -0.7429 N.2     
  14 N14            6.2705    -1.8131    -0.2731 N.am    
  15 C15            7.1752    -2.8118    -0.2964 C.2     
  16 O16            8.3472    -2.5657    -0.5074 O.2     
  17 C17            1.1843    -0.7406     0.3897 C.ar    
  18 N18            6.7809    -4.0833    -0.0859 N.am    
  19 C19            7.7018    -5.1307    -0.2064 C.ar    
  20 C20           -1.2774    -0.8364     0.7811 C.3     
  21 N21           -1.8988    -1.2449    -0.4858 N.3     
  22 C22           -2.9987    -2.1918    -0.2519 C.3     
  23 C23           -0.9017    -1.8202    -1.4002 C.3     
  24 C24           -1.5787    -2.1761    -2.7264 C.3     
  25 O25           -2.6646    -3.0726    -2.4759 O.3     
  26 C26           -3.6547    -2.5441    -1.5896 C.3     
  27 C27            9.0204    -4.9458     0.1870 C.ar    
  28 C28            9.9278    -5.9806     0.0673 C.ar    
  29 C29            9.5240    -7.2007    -0.4445 C.ar    
  30 C30            8.2092    -7.3883    -0.8379 C.ar    
  31 C31            7.2965    -6.3579    -0.7143 C.ar    
  32 Cl32          10.6671    -8.4986    -0.5946 Cl      
  33 Cl33           7.7060    -8.9206    -1.4803 Cl      
  34 H34           -1.0093     1.8231     0.4238 H       
  35 H35            1.0387     3.0988    -0.0378 H       
  36 H36            3.8897     2.6929    -0.4321 H       
  37 H37            8.8229    -0.7052    -0.7986 H       
  38 H38            8.6903     1.8420    -1.0762 H       
  39 H39            5.3356    -2.0094    -0.1048 H       
  40 H40            1.2162    -1.8133     0.5111 H       
  41 H41            5.8590    -4.2726     0.1490 H       
  42 H42           -1.0402    -1.7214     1.3714 H       
  43 H43           -1.9688    -0.2033     1.3373 H       
  44 H44           -2.6070    -3.0975     0.2110 H       
  45 H45           -3.7377    -1.7358     0.4070 H       
  46 H46           -0.1098    -1.0929    -1.5795 H       
  47 H47           -0.4764    -2.7199    -0.9556 H       
  48 H48           -1.9571    -1.2687    -3.1970 H       
  49 H49           -0.8561    -2.6553    -3.3869 H       
  50 H50           -4.4335    -3.2893    -1.4280 H       
  51 H51           -4.0934    -1.6473    -2.0272 H       
  52 H52            9.3367    -3.9934     0.5861 H       
  53 H53           10.9535    -5.8368     0.3734 H       
  54 H54            6.2713    -6.5042    -1.0207 H       
@<TRIPOS>BOND
   1    1    2 ar
   2    1    5 ar
   3    1   34 1
   4    2   17 ar
   5    2   20 1
   6    3    4 ar
   7    3    6 1
   8    3   17 ar
   9    4    5 ar
  10    4    8 1
  11    5   35 1
  12    6    7 2
  13    7    8 1
  14    7    9 1
  15    8   36 1
  16    9   10 1
  17    9   13 2
  18   10   11 2
  19   10   14 1
  20   11   12 1
  21   11   37 1
  22   12   13 1
  23   12   38 1
  24   14   15 am
  25   14   39 1
  26   15   16 2
  27   15   18 am
  28   17   40 1
  29   18   19 1
  30   18   41 1
  31   19   27 ar
  32   19   31 ar
  33   20   21 1
  34   20   42 1
  35   20   43 1
  36   21   22 1
  37   21   23 1
  38   22   26 1
  39   22   44 1
  40   22   45 1
  41   23   24 1
  42   23   46 1
  43   23   47 1
  44   24   25 1
  45   24   48 1
  46   24   49 1
  47   25   26 1
  48   26   50 1
  49   26   51 1
  50   27   28 ar
  51   27   52 1
  52   28   29 ar
  53   28   53 1
  54   29   30 ar
  55   29   32 1
  56   30   31 ar
  57   30   33 1
  58   31   54 1

#	End of record

