#	Name: ASD02038405
#	Creating user name:	WinNT
#	Creation time:	15. 06. 2019 20:16

#	Modifying user name:	WinNT
#	Modification time:	15. 06. 2019 20:16

#	Program:	/corina/corina34_cracker 3.40 0067  02.08.2006

@<TRIPOS>MOLECULE
ASD02038405
  41   43    0    0    0
SMALL
NO_CHARGES


@<TRIPOS>ATOM
   1 N1            -0.0162     1.3436     0.0094 N.am    
   2 C2             0.0021    -0.0041     0.0020 C.2     
   3 C3            -1.2926    -0.7753     0.0102 C.3     
   4 O4            -1.0125    -2.1765     0.0000 O.3     
   5 C5            -2.0794    -3.0194     0.0057 C.ar    
   6 C6            -1.8770    -4.3899    -0.0036 C.ar    
   7 C7            -2.9649    -5.2486     0.0022 C.ar    
   8 C8            -4.2583    -4.7276     0.0173 C.ar    
   9 C9            -4.4557    -3.3557     0.0273 C.ar    
  10 C10           -3.3686    -2.5040     0.0265 C.ar    
  11 N11            2.2011     4.3432     0.0044 N.pl3   
  12 C12            0.9425     3.5935     0.0124 C.3     
  13 C13            1.2424     2.0932     0.0014 C.3     
  14 C14            2.1821     5.7412     0.0121 C.ar    
  15 C15            3.3748     6.4527     0.0045 C.ar    
  16 C16            3.3534     7.8354     0.0122 C.ar    
  17 C17            2.1416     8.5102     0.0279 C.ar    
  18 C18            0.9532     7.8015     0.0354 C.ar    
  19 C19            0.9708     6.4199     0.0215 C.ar    
  20 F20            2.1217     9.8610     0.0363 F       
  21 O21            1.0605    -0.5961    -0.0113 O.2     
  22 F22            4.5127     8.5289     0.0048 F       
  23 O23           -3.0749    -6.5997    -0.0040 O.3     
  24 C24           -4.3739    -6.9373     0.0066 C.2     
  25 N25           -5.1280    -5.8204     0.0198 N.am    
  26 O26           -4.8038    -8.0748     0.0049 O.2     
  27 H27           -0.8627     1.8171     0.0160 H       
  28 H28           -1.8592    -0.5245     0.9070 H       
  29 H29           -1.8762    -0.5150    -0.8728 H       
  30 H30           -0.8732    -4.7885    -0.0157 H       
  31 H31           -5.4579    -2.9535     0.0386 H       
  32 H32           -3.5216    -1.4349     0.0346 H       
  33 H33            3.0476     3.8697    -0.0063 H       
  34 H34            0.3759     3.8443     0.9091 H       
  35 H35            0.3589     3.8538    -0.8707 H       
  36 H36            1.8260     1.8329     0.8845 H       
  37 H37            1.8090     1.8425    -0.8954 H       
  38 H38            4.3180     5.9267    -0.0070 H       
  39 H39            0.0108     8.3289     0.0476 H       
  40 H40            0.0425     5.8679     0.0275 H       
  41 H41           -6.0972    -5.7824     0.0292 H       
@<TRIPOS>BOND
   1    1    2 am
   2    1   13 1
   3    1   27 1
   4    2   21 2
   5    2    3 1
   6    3    4 1
   7    3   28 1
   8    3   29 1
   9    4    5 1
  10    5    6 ar
  11    5   10 ar
  12    6    7 ar
  13    6   30 1
  14    7    8 ar
  15    7   23 1
  16    8    9 ar
  17    8   25 1
  18    9   10 ar
  19    9   31 1
  20   10   32 1
  21   11   12 1
  22   11   14 1
  23   11   33 1
  24   12   13 1
  25   12   34 1
  26   12   35 1
  27   13   36 1
  28   13   37 1
  29   14   15 ar
  30   14   19 ar
  31   15   16 ar
  32   15   38 1
  33   16   17 ar
  34   16   22 1
  35   17   18 ar
  36   17   20 1
  37   18   19 ar
  38   18   39 1
  39   19   40 1
  40   23   24 1
  41   24   25 am
  42   24   26 2
  43   25   41 1

#	End of record

