#	Name: ASD01812959
#	Creating user name:	WinNT
#	Creation time:	15. 06. 2019 19:29

#	Modifying user name:	WinNT
#	Modification time:	15. 06. 2019 19:29

#	Program:	/corina/corina34_cracker 3.40 0067  02.08.2006

@<TRIPOS>MOLECULE
ASD01812959
  59   63    0    0    0
SMALL
NO_CHARGES


@<TRIPOS>ATOM
   1 C1            -0.0166     1.3764     0.0096 C.ar    
   2 C2             0.0021    -0.0041     0.0020 C.ar    
   3 C3             1.2089    -0.6872    -0.0127 C.ar    
   4 C4             2.3941     0.0075    -0.0203 C.ar    
   5 C5             2.3941     1.4057    -0.0132 C.ar    
   6 C6             1.1719     2.0915     0.0021 C.ar    
   7 C7             3.8413    -0.4177    -0.0364 C.3     
   8 N8             4.6313     0.8189    -0.0378 N.am    
   9 C9             3.7915     1.8684    -0.0244 C.2     
  10 C10            6.0942     0.8968    -0.0511 C.3     
  11 C11            6.5825     0.9304    -1.4764 C.ar    
  12 O12            1.1515     3.4479     0.0091 O.3     
  13 O13            4.1370     3.0341    -0.0215 O.2     
  14 C14            6.7421     2.1434    -2.1218 C.ar    
  15 C15            7.1890     2.1798    -3.4272 C.ar    
  16 C16            7.4800     0.9922    -4.0945 C.ar    
  17 C17            7.3179    -0.2266    -3.4397 C.ar    
  18 C18            6.8750    -0.2515    -2.1327 C.ar    
  19 C19            7.9606     1.0253    -5.4989 C.2     
  20 C20           -0.1314     4.0773     0.0243 C.3     
  21 C21            0.0461     5.5969     0.0302 C.3     
  22 O22            0.6562     6.0119    -1.1956 O.3     
  23 C23            0.8192     7.4293    -1.3030 C.3     
  24 C24           -0.5491     8.1039    -1.1692 C.3     
  25 O25           -1.1592     7.6889     0.0566 O.3     
  26 C26           -1.3222     6.2715     0.1640 C.3     
  27 C27            7.3905     1.7130    -6.5301 C.2     
  28 C28            9.0915     0.3573    -6.0076 C.2     
  29 N29            9.1857     0.6312    -7.2818 N.2     
  30 N30            8.1324     1.4843    -7.6325 N.pl3   
  31 C31            7.8775     2.0302    -8.9679 C.3     
  32 C32           10.0293    -0.5205    -5.2195 C.3     
  33 H33           -0.9604     1.9015     0.0169 H       
  34 H34           -0.9272    -0.5544     0.0079 H       
  35 H35            1.2170    -1.7672    -0.0179 H       
  36 H36            4.0688    -1.0067     0.8521 H       
  37 H37            4.0515    -0.9977    -0.9350 H       
  38 H38            6.4145     1.8024     0.4641 H       
  39 H39            6.5091     0.0250     0.4546 H       
  40 H40            6.5162     3.0636    -1.6034 H       
  41 H41            7.3126     3.1274    -3.9304 H       
  42 H42            7.5421    -1.1503    -3.9526 H       
  43 H43            6.7526    -1.1957    -1.6229 H       
  44 H44           -0.6922     3.7805    -0.8620 H       
  45 H45           -0.6756     3.7715     0.9178 H       
  46 H46            0.6796     5.8864     0.8687 H       
  47 H47            1.4781     7.7814    -0.5093 H       
  48 H48            1.2526     7.6737    -2.2728 H       
  49 H49           -0.4226     9.1865    -1.1650 H       
  50 H50           -1.1820     7.8134    -2.0078 H       
  51 H51           -1.9811     5.9194    -0.6297 H       
  52 H52           -1.7556     6.0271     1.1338 H       
  53 H53            6.5051     2.3289    -6.4738 H       
  54 H54            8.3968     2.9823    -9.0764 H       
  55 H55            8.2395     1.3308    -9.7215 H       
  56 H56            6.8063     2.1835    -9.0993 H       
  57 H57            9.6736    -1.5504    -5.2485 H       
  58 H58           11.0274    -0.4685    -5.6546 H       
  59 H59           10.0654    -0.1775    -4.1855 H       
@<TRIPOS>BOND
   1    1    2 ar
   2    1    6 ar
   3    1   33 1
   4    2    3 ar
   5    2   34 1
   6    3    4 ar
   7    3   35 1
   8    4    7 1
   9    4    5 ar
  10    5    6 ar
  11    5    9 1
  12    6   12 1
  13    7    8 1
  14    7   36 1
  15    7   37 1
  16    8    9 am
  17    8   10 1
  18    9   13 2
  19   10   11 1
  20   10   38 1
  21   10   39 1
  22   11   14 ar
  23   11   18 ar
  24   12   20 1
  25   14   15 ar
  26   14   40 1
  27   15   16 ar
  28   15   41 1
  29   16   17 ar
  30   16   19 1
  31   17   18 ar
  32   17   42 1
  33   18   43 1
  34   19   28 1
  35   19   27 2
  36   20   21 1
  37   20   44 1
  38   20   45 1
  39   21   22 1
  40   21   26 1
  41   21   46 1
  42   22   23 1
  43   23   24 1
  44   23   47 1
  45   23   48 1
  46   24   25 1
  47   24   49 1
  48   24   50 1
  49   25   26 1
  50   26   51 1
  51   26   52 1
  52   27   30 1
  53   27   53 1
  54   28   29 2
  55   28   32 1
  56   29   30 1
  57   30   31 1
  58   31   54 1
  59   31   55 1
  60   31   56 1
  61   32   57 1
  62   32   58 1
  63   32   59 1

#	End of record

