#	Name: ASD01883088
#	Creating user name:	WinNT
#	Creation time:	15. 06. 2019 19:45

#	Modifying user name:	WinNT
#	Modification time:	15. 06. 2019 19:45

#	Program:	/corina/corina34_cracker 3.40 0067  02.08.2006

@<TRIPOS>MOLECULE
ASD01883088
  46   49    0    0    0
SMALL
NO_CHARGES


@<TRIPOS>ATOM
   1 C1            -0.0168     1.3892     0.0097 C.ar    
   2 N2             5.3569     4.5906     1.3578 N.am    
   3 C3             6.1538     3.6935     1.9674 C.2     
   4 C4             6.5794     3.9172     3.3007 C.2     
   5 C5             6.1530     5.0835     3.9581 C.2     
   6 C6             5.3198     5.9835     3.2665 C.2     
   7 C7             4.9498     5.7194     1.9923 C.2     
   8 O8             6.5087     2.6896     1.3737 O.2     
   9 C9             7.4269     2.9731     3.9647 C.1     
  10 N10            8.0993     2.2241     4.4915 N.1     
  11 C11            4.9250     4.3468    -0.0207 C.3     
  12 C12            3.6319     3.5729    -0.0125 C.ar    
  13 C13            2.4248     4.2482     0.0022 C.ar    
  14 C14            1.2376     3.5444     0.0093 C.ar    
  15 C15            1.2565     2.1512     0.0016 C.ar    
  16 C16            2.4753     1.4761    -0.0132 C.ar    
  17 C17            3.6565     2.1900    -0.0255 C.ar    
  18 C18            6.5708     5.3601     5.3500 C.ar    
  19 C19            7.3852     6.4580     5.6323 C.ar    
  20 C20            7.7712     6.7103     6.9324 C.ar    
  21 C21            7.3533     5.8776     7.9554 C.ar    
  22 C22            6.5459     4.7877     7.6824 C.ar    
  23 C23            6.1476     4.5277     6.3874 C.ar    
  24 C24            0.0021    -0.0041     0.0020 C.ar    
  25 C25           -1.1852    -0.7078     0.0095 C.ar    
  26 C26           -2.3923    -0.0326     0.0242 C.ar    
  27 C27           -2.4169     1.3504     0.0318 C.ar    
  28 C28           -1.2356     2.0642     0.0307 C.ar    
  29 H29            4.9797     6.8865     3.7516 H       
  30 H30            4.3105     6.4172     1.4719 H       
  31 H31            4.7750     5.2996    -0.5283 H       
  32 H32            5.6889     3.7723    -0.5446 H       
  33 H33            2.4113     5.3281     0.0081 H       
  34 H34            0.2956     4.0726     0.0214 H       
  35 H35            2.4956     0.3963    -0.0192 H       
  36 H36            4.6018     1.6678    -0.0373 H       
  37 H37            7.7126     7.1082     4.8346 H       
  38 H38            8.4014     7.5594     7.1522 H       
  39 H39            7.6589     6.0792     8.9715 H       
  40 H40            6.2231     4.1416     8.4854 H       
  41 H41            5.5170     3.6768     6.1756 H       
  42 H42            0.9440    -0.5323    -0.0101 H       
  43 H43           -1.1717    -1.7877     0.0036 H       
  44 H44           -3.3190    -0.5872     0.0293 H       
  45 H45           -3.3622     1.8726     0.0433 H       
  46 H46           -1.2559     3.1440     0.0371 H       
@<TRIPOS>BOND
   1    1   24 ar
   2    1   15 1
   3    1   28 ar
   4    2    3 am
   5    2   11 1
   6    2    7 1
   7    3    4 1
   8    3    8 2
   9    4    5 2
  10    4    9 1
  11    5    6 1
  12    5   18 1
  13    6    7 2
  14    6   29 1
  15    7   30 1
  16    9   10 3
  17   11   12 1
  18   11   31 1
  19   11   32 1
  20   12   13 ar
  21   12   17 ar
  22   13   14 ar
  23   13   33 1
  24   14   15 ar
  25   14   34 1
  26   15   16 ar
  27   16   17 ar
  28   16   35 1
  29   17   36 1
  30   18   19 ar
  31   18   23 ar
  32   19   20 ar
  33   19   37 1
  34   20   21 ar
  35   20   38 1
  36   21   22 ar
  37   21   39 1
  38   22   23 ar
  39   22   40 1
  40   23   41 1
  41   24   25 ar
  42   24   42 1
  43   25   26 ar
  44   25   43 1
  45   26   27 ar
  46   26   44 1
  47   27   28 ar
  48   27   45 1
  49   28   46 1

#	End of record

