#	Name: ASD00100023
#	Creating user name:	WinNT
#	Creation time:	15. 06. 2019 18:30

#	Modifying user name:	WinNT
#	Modification time:	15. 06. 2019 18:30

#	Program:	/corina/corina34_cracker 3.40 0067  02.08.2006

@<TRIPOS>MOLECULE
ASD00100023
  63   67    0    0    0
SMALL
NO_CHARGES


@<TRIPOS>ATOM
   1 C1            -0.0187     1.5258     0.0104 C.3     
   2 C2             0.0021    -0.0041     0.0020 C.3     
   3 C3             1.3165     0.7789    -0.0063 C.3     
   4 C4            -0.4420     2.2229    -1.2568 C.2     
   5 O5            -0.7498     1.5724    -2.2330 O.2     
   6 N6            -0.4784     3.5693    -1.3053 N.am    
   7 C7            -0.8899     4.2470    -2.5372 C.3     
   8 C8            -1.4416     5.6329    -2.1970 C.3     
   9 C9            -1.8714     6.3407    -3.4836 C.3     
  10 C10           -0.6648     6.4861    -4.4131 C.3     
  11 C11           -0.1131     5.1002    -4.7533 C.3     
  12 C12            0.3166     4.3924    -3.4667 C.3     
  13 C13           -1.0946     7.1939    -5.6997 C.3     
  14 C14            0.1337     7.4509    -6.5751 C.3     
  15 N15           -0.2790     8.1304    -7.8103 N.3     
  16 C16            0.8880     8.6046    -8.5651 C.3     
  17 C17            0.4197     9.4306    -9.7653 C.3     
  18 C18           -0.4716     8.5636   -10.6589 C.3     
  19 C19           -1.6534     8.0431    -9.8361 C.3     
  20 C20           -1.1250     7.2573    -8.6339 C.3     
  21 O21           -1.9988    10.9614   -12.9696 O.3     
  22 C22           -1.7324    10.4980   -11.7360 C.2     
  23 C23           -0.9845     9.3888   -11.8109 C.2     
  24 C24           -0.7647     9.1393   -13.2406 C.ar    
  25 C25           -1.4367    10.1758   -13.9102 C.ar    
  26 C26           -0.0825     8.1639   -13.9658 C.ar    
  27 C27           -0.0712     8.2226   -15.3421 C.ar    
  28 C28           -0.7344     9.2456   -16.0039 C.ar    
  29 C29           -1.4128    10.2164   -15.2983 C.ar    
  30 H30           -0.3072     2.0201     0.9381 H       
  31 H31           -0.2728    -0.5162     0.9241 H       
  32 H32           -0.2904    -0.5063    -0.9201 H       
  33 H33            1.8888     0.7918    -0.9339 H       
  34 H34            1.9064     0.7818     0.9103 H       
  35 H35           -0.2322     4.0896    -0.5246 H       
  36 H36           -1.6626     3.6602    -3.0340 H       
  37 H37           -2.3012     5.5293    -1.5348 H       
  38 H38           -0.6689     6.2197    -1.7003 H       
  39 H39           -2.6441     5.7539    -3.9804 H       
  40 H40           -2.2644     7.3280    -3.2412 H       
  41 H41            0.1079     7.0729    -3.9163 H       
  42 H42           -0.8858     4.5135    -5.2501 H       
  43 H43            0.7465     5.2038    -5.4155 H       
  44 H44            1.0893     4.9792    -2.9700 H       
  45 H45            0.7097     3.4051    -3.7091 H       
  46 H46           -1.8017     6.5656    -6.2412 H       
  47 H47           -1.5686     8.1434    -5.4511 H       
  48 H48            0.8408     8.0792    -6.0335 H       
  49 H49            0.6077     6.5014    -6.8237 H       
  50 H50            1.5113     9.2233    -7.9194 H       
  51 H51            1.4656     7.7494    -8.9160 H       
  52 H52           -0.1462    10.2936    -9.4145 H       
  53 H53            1.2857     9.7694   -10.3341 H       
  54 H54            0.1052     7.7214   -11.0412 H       
  55 H55           -2.2520     8.8843    -9.4865 H       
  56 H56           -2.2686     7.3905   -10.4555 H       
  57 H57           -0.5380     6.4084    -8.9845 H       
  58 H58           -1.9638     6.8974    -8.0382 H       
  59 H59           -2.0721    10.9537   -10.8177 H       
  60 H60            0.4346     7.3671   -13.4518 H       
  61 H61            0.4564     7.4693   -15.9082 H       
  62 H62           -0.7188     9.2821   -17.0831 H       
  63 H63           -1.9256    11.0079   -15.8246 H       
@<TRIPOS>BOND
   1    1    2 1
   2    1    3 1
   3    1    4 1
   4    1   30 1
   5    2    3 1
   6    2   31 1
   7    2   32 1
   8    3   33 1
   9    3   34 1
  10    4    5 2
  11    4    6 am
  12    6    7 1
  13    6   35 1
  14    7    8 1
  15    7   12 1
  16    7   36 1
  17    8    9 1
  18    8   37 1
  19    8   38 1
  20    9   10 1
  21    9   39 1
  22    9   40 1
  23   10   11 1
  24   10   13 1
  25   10   41 1
  26   11   12 1
  27   11   42 1
  28   11   43 1
  29   12   44 1
  30   12   45 1
  31   13   14 1
  32   13   46 1
  33   13   47 1
  34   14   15 1
  35   14   48 1
  36   14   49 1
  37   15   16 1
  38   15   20 1
  39   16   17 1
  40   16   50 1
  41   16   51 1
  42   17   18 1
  43   17   52 1
  44   17   53 1
  45   18   19 1
  46   18   23 1
  47   18   54 1
  48   19   20 1
  49   19   55 1
  50   19   56 1
  51   20   57 1
  52   20   58 1
  53   21   22 1
  54   21   25 1
  55   22   23 2
  56   22   59 1
  57   23   24 1
  58   24   25 ar
  59   24   26 ar
  60   25   29 ar
  61   26   27 ar
  62   26   60 1
  63   27   28 ar
  64   27   61 1
  65   28   29 ar
  66   28   62 1
  67   29   63 1

#	End of record

