#	Name: ASD00070109
#	Creating user name:	WinNT
#	Creation time:	15. 06. 2019 18:30

#	Modifying user name:	WinNT
#	Modification time:	15. 06. 2019 18:30

#	Program:	/corina/corina34_cracker 3.40 0067  02.08.2006

@<TRIPOS>MOLECULE
ASD00070109
  58   61    0    0    0
SMALL
NO_CHARGES


@<TRIPOS>ATOM
   1 C1            -0.0144     1.2086     0.0087 C.2     
   2 O2             0.0021    -0.0041     0.0020 O.2     
   3 N3             1.1435     1.8983     0.0013 N.am    
   4 C4             2.4220     1.1832    -0.0147 C.3     
   5 C5             3.4995     2.0784    -0.6299 C.3     
   6 C6             4.8347     1.3316    -0.6466 C.3     
   7 C7             5.2321     0.9652     0.7847 C.3     
   8 C8             4.1546     0.0699     1.3999 C.3     
   9 C9             2.8194     0.8168     1.4166 C.3     
  10 C10            6.5673     0.2183     0.7680 C.3     
  11 C11            7.0262    -0.0384     2.2048 C.3     
  12 N12            8.3081    -0.7555     2.1887 N.3     
  13 C13            8.8965    -0.8119     3.5330 C.3     
  14 C14           10.2924    -1.4344     3.4546 C.3     
  15 C15           10.1852    -2.8433     2.8646 C.3     
  16 C16            9.5252    -2.7616     1.4853 C.3     
  17 C17            8.1516    -2.1006     1.6207 C.3     
  18 O18           13.2492    -6.2963     4.0315 O.3     
  19 C19           11.9323    -6.7882     4.3323 C.3     
  20 C20           11.0728    -5.5021     4.3112 C.3     
  21 C21           11.8787    -4.6022     3.3944 C.ar    
  22 C22           13.1460    -5.1613     3.2869 C.ar    
  23 C23           11.5629    -3.4387     2.7292 C.ar    
  24 C24           12.5110    -2.8166     1.9358 C.ar    
  25 C25           13.7731    -3.3675     1.8149 C.ar    
  26 C26           14.0927    -4.5316     2.4830 C.ar    
  27 H27           -0.9569     1.7358     0.0160 H       
  28 H28            1.1304     2.8682     0.0067 H       
  29 H29            2.3225     0.2743    -0.6081 H       
  30 H30            3.2164     2.3395    -1.6496 H       
  31 H31            3.5990     2.9873    -0.0364 H       
  32 H32            4.7352     0.4227    -1.2400 H       
  33 H33            5.6023     1.9694    -1.0849 H       
  34 H34            5.3316     1.8740     1.3781 H       
  35 H35            4.0551    -0.8390     0.8065 H       
  36 H36            4.4378    -0.1911     2.4196 H       
  37 H37            2.9189     1.7256     2.0100 H       
  38 H38            2.0518     0.1789     1.8549 H       
  39 H39            6.4450    -0.7330     0.2502 H       
  40 H40            7.3140     0.8204     0.2502 H       
  41 H41            7.1485     0.9129     2.7226 H       
  42 H42            6.2795    -0.6405     2.7225 H       
  43 H43            8.9710     0.1967     3.9394 H       
  44 H44            8.2641    -1.4187     4.1810 H       
  45 H45           10.9293    -0.8206     2.8177 H       
  46 H46           10.7225    -1.4904     4.4546 H       
  47 H47            9.5801    -3.4682     3.5214 H       
  48 H48           10.1501    -2.1687     0.8174 H       
  49 H49            9.4073    -3.7659     1.0783 H       
  50 H50            7.5227    -2.7014     2.2778 H       
  51 H51            7.6851    -2.0280     0.6383 H       
  52 H52           11.5978    -7.4889     3.5673 H       
  53 H53           11.9093    -7.2518     5.3186 H       
  54 H54           10.0856    -5.7000     3.8935 H       
  55 H55           10.9927    -5.0705     5.3089 H       
  56 H56           12.2656    -1.9042     1.4128 H       
  57 H57           14.5128    -2.8844     1.1937 H       
  58 H58           15.0811    -4.9552     2.3833 H       
@<TRIPOS>BOND
   1    1    2 2
   2    1    3 am
   3    1   27 1
   4    3    4 1
   5    3   28 1
   6    4    5 1
   7    4    9 1
   8    4   29 1
   9    5    6 1
  10    5   30 1
  11    5   31 1
  12    6    7 1
  13    6   32 1
  14    6   33 1
  15    7    8 1
  16    7   10 1
  17    7   34 1
  18    8    9 1
  19    8   35 1
  20    8   36 1
  21    9   37 1
  22    9   38 1
  23   10   11 1
  24   10   39 1
  25   10   40 1
  26   11   12 1
  27   11   41 1
  28   11   42 1
  29   12   13 1
  30   12   17 1
  31   13   14 1
  32   13   43 1
  33   13   44 1
  34   14   15 1
  35   14   45 1
  36   14   46 1
  37   15   16 1
  38   15   23 1
  39   15   47 1
  40   16   17 1
  41   16   48 1
  42   16   49 1
  43   17   50 1
  44   17   51 1
  45   18   19 1
  46   18   22 1
  47   19   20 1
  48   19   52 1
  49   19   53 1
  50   20   21 1
  51   20   54 1
  52   20   55 1
  53   21   22 ar
  54   21   23 ar
  55   22   26 ar
  56   23   24 ar
  57   24   25 ar
  58   24   56 1
  59   25   26 ar
  60   25   57 1
  61   26   58 1

#	End of record

