#	Name: ASD01200010
#	Creating user name:	WinNT
#	Creation time:	15. 06. 2019 19:08

#	Modifying user name:	WinNT
#	Modification time:	15. 06. 2019 19:08

#	Program:	/corina/corina34_cracker 3.40 0067  02.08.2006

@<TRIPOS>MOLECULE
ASD01200010
  51   52    0    0    0
SMALL
NO_CHARGES


@<TRIPOS>ATOM
   1 C1            -0.5188     1.0276     0.1569 C.2     
   2 N2            -0.6698    -0.3115     0.1764 N.am    
   3 C3             0.4437    -1.1370     0.0958 C.ar    
   4 O4             0.5950     1.5138     0.1691 O.2     
   5 C5            -1.7078     1.9049     0.1147 C.ar    
   6 C6             0.2882    -2.5143     0.2302 C.ar    
   7 C7             1.3884    -3.3260     0.1498 C.ar    
   8 C8             2.6419    -2.7342    -0.0669 C.ar    
   9 C9             2.7231    -1.3455    -0.1923 C.ar    
  10 N10            1.6391    -0.6030    -0.1135 N.ar    
  11 C11           -1.5538     3.2914     0.0945 C.ar    
  12 C12           -2.6707     4.1099     0.0550 C.ar    
  13 C13           -3.9409     3.5527     0.0359 C.ar    
  14 C14           -4.0987     2.1743     0.0559 C.ar    
  15 C15           -2.9874     1.3486     0.0892 C.ar    
  16 O16           -5.3455     1.6337     0.0372 O.3     
  17 C17           -6.4466     2.5436    -0.0031 C.3     
  18 C18           -7.7584     1.7563    -0.0192 C.3     
  19 C19           -7.9116     0.9936     1.2983 C.3     
  20 O20           -2.5219     5.4606     0.0353 O.3     
  21 C21           -1.1910     5.9684     0.1496 C.3     
  22 C22           -1.1258     7.3701    -0.4602 C.3     
  23 C23           -0.7959     6.0356     1.6261 C.3     
  24 C24           -8.9317     2.7237    -0.1878 C.3     
  25 C25            3.8559    -3.5661    -0.1604 C.2     
  26 O26            3.7751    -4.7734    -0.0496 O.2     
  27 O27            5.0548    -2.9874    -0.3688 O.3     
  28 H28           -1.5565    -0.6986     0.2467 H       
  29 H29           -0.6909    -2.9385     0.3968 H       
  30 H30            1.2933    -4.3970     0.2513 H       
  31 H31            3.6821    -0.8777    -0.3590 H       
  32 H32           -0.5652     3.7260     0.1100 H       
  33 H33           -4.8096     4.1937     0.0058 H       
  34 H34           -3.1111     0.2758     0.1047 H       
  35 H35           -6.4193     3.1862     0.8769 H       
  36 H36           -6.3793     3.1558    -0.9024 H       
  37 H37           -7.7480     1.0497    -0.8490 H       
  38 H38           -7.0757     0.3044     1.4184 H       
  39 H39           -7.9221     1.7002     2.1281 H       
  40 H40           -8.8462     0.4327     1.2869 H       
  41 H41           -0.5038     5.3091    -0.3808 H       
  42 H42           -1.8130     8.0293     0.0702 H       
  43 H43           -0.1107     7.7574    -0.3730 H       
  44 H44           -1.4073     7.3222    -1.5121 H       
  45 H45           -1.4831     6.6948     2.1565 H       
  46 H46           -0.8423     5.0370     2.0605 H       
  47 H47            0.2193     6.4229     1.7133 H       
  48 H48           -8.8226     3.2671    -1.1264 H       
  49 H49           -9.8663     2.1628    -0.1992 H       
  50 H50           -8.9422     3.4303     0.6420 H       
  51 H51            5.8219    -3.5738    -0.4228 H       
@<TRIPOS>BOND
   1    1    2 am
   2    1    4 2
   3    1    5 1
   4    2    3 1
   5    2   28 1
   6    3    6 ar
   7    3   10 ar
   8    5   11 ar
   9    5   15 ar
  10    6    7 ar
  11    6   29 1
  12    7    8 ar
  13    7   30 1
  14    8    9 ar
  15    8   25 1
  16    9   10 ar
  17    9   31 1
  18   11   12 ar
  19   11   32 1
  20   12   13 ar
  21   12   20 1
  22   13   14 ar
  23   13   33 1
  24   14   15 ar
  25   14   16 1
  26   15   34 1
  27   16   17 1
  28   17   18 1
  29   17   35 1
  30   17   36 1
  31   18   19 1
  32   18   24 1
  33   18   37 1
  34   19   38 1
  35   19   39 1
  36   19   40 1
  37   20   21 1
  38   21   22 1
  39   21   23 1
  40   21   41 1
  41   22   42 1
  42   22   43 1
  43   22   44 1
  44   23   45 1
  45   23   46 1
  46   23   47 1
  47   24   48 1
  48   24   49 1
  49   24   50 1
  50   25   26 2
  51   25   27 1
  52   27   51 1

#	End of record

