#	Name: ASD00461051
#	Creating user name:	WinNT
#	Creation time:	15. 06. 2019 18:36

#	Modifying user name:	WinNT
#	Modification time:	15. 06. 2019 18:36

#	Program:	/corina/corina34_cracker 3.40 0067  02.08.2006

@<TRIPOS>MOLECULE
ASD00461051
  69   71    0    0    0
SMALL
NO_CHARGES


@<TRIPOS>ATOM
   1 C1             0.8127     1.7118     0.6178 C.ar    
   2 C2             0.5270     0.3620     0.6364 C.ar    
   3 C3             1.5582    -0.5678     0.5098 C.ar    
   4 C4             2.8727    -0.1274     0.3650 C.ar    
   5 C5             3.1464     1.2253     0.3478 C.ar    
   6 C6             2.1194     2.1431     0.4739 C.ar    
   7 C7             3.9929    -1.1261     0.2281 C.3     
   8 O8             5.1066    -0.5071    -0.4188 O.3     
   9 C9             5.9044    -1.4071    -1.1905 C.3     
  10 C10            7.0611    -0.6398    -1.8339 C.3     
  11 C11            7.9850    -1.6219    -2.5570 C.3     
  12 N12            9.1575    -0.9024    -3.0724 N.3     
  13 C13           10.0690    -1.8158    -3.7744 C.3     
  14 O14            6.5425     0.3052    -2.7721 O.3     
  15 C15           11.2751    -1.0318    -4.2956 C.3     
  16 C16           10.5457    -2.9025    -2.8086 C.3     
  17 C17            9.3355    -2.4643    -4.9501 C.3     
  18 C18           12.2102    -1.9688    -5.0157 C.ar    
  19 C19           12.0587    -2.1882    -6.3720 C.ar    
  20 C20           12.9156    -3.0475    -7.0345 C.ar    
  21 C21           13.9254    -3.6885    -6.3405 C.ar    
  22 C22           14.0780    -3.4685    -4.9807 C.ar    
  23 C23           13.2223    -2.6038    -4.3205 C.ar    
  24 Cl24          15.0008    -4.7684    -7.1718 Cl      
  25 F25           15.0640    -4.0939    -4.3010 F       
  26 C26            1.2577    -2.0196     0.5295 C.ar    
  27 C27            0.5836    -2.5770     1.6162 C.ar    
  28 C28            0.3040    -3.9249     1.6358 C.ar    
  29 C29            0.6954    -4.7346     0.5662 C.ar    
  30 C30            1.3704    -4.1747    -0.5222 C.ar    
  31 C31            1.6444    -2.8261    -0.5415 C.ar    
  32 C32           -0.4234    -4.5269     2.8103 C.3     
  33 C33            4.4150    -1.6125     1.6159 C.3     
  34 C34            0.3968    -6.1799     0.5861 C.2     
  35 O35           -0.2639    -6.6513     1.4901 O.2     
  36 O36            0.8569    -6.9765    -0.3984 O.3     
  37 H37            0.0142     2.4330     0.7113 H       
  38 H38           -0.4933     0.0264     0.7492 H       
  39 H39            4.1646     1.5678     0.2360 H       
  40 H40            2.3382     3.2006     0.4595 H       
  41 H41            3.6528    -1.9742    -0.3663 H       
  42 H42            6.3023    -2.1874    -0.5418 H       
  43 H43            5.2909    -1.8599    -1.9694 H       
  44 H44            7.6227    -0.1142    -1.0616 H       
  45 H45            8.3102    -2.3947    -1.8605 H       
  46 H46            7.4480    -2.0826    -3.3861 H       
  47 H47            8.8791    -0.1389    -3.6705 H       
  48 H48            6.0305    -0.0931    -3.4892 H       
  49 H49           10.9354    -0.2576    -4.9836 H       
  50 H50           11.7976    -0.5698    -3.4580 H       
  51 H51            9.6865    -3.4610    -2.4373 H       
  52 H52           11.2221    -3.5802    -3.3295 H       
  53 H53           11.0683    -2.4404    -1.9710 H       
  54 H54            8.9959    -1.6902    -5.6381 H       
  55 H55           10.0119    -3.1421    -5.4710 H       
  56 H56            8.4763    -3.0229    -4.5788 H       
  57 H57           11.2701    -1.6883    -6.9146 H       
  58 H58           12.7961    -3.2184    -8.0941 H       
  59 H59           13.3402    -2.4316    -3.2609 H       
  60 H60            0.2813    -1.9510     2.4426 H       
  61 H61            1.6735    -4.7994    -1.3494 H       
  62 H62            2.1656    -2.3932    -1.3825 H       
  63 H63           -1.4847    -4.6106     2.5763 H       
  64 H64           -0.0183    -5.5169     3.0199 H       
  65 H65           -0.2932    -3.8886     3.6842 H       
  66 H66            4.7550    -0.7644     2.2103 H       
  67 H67            3.5655    -2.0847     2.1094 H       
  68 H68            5.2252    -2.3349     1.5169 H       
  69 H69            0.6356    -7.9161    -0.3423 H       
@<TRIPOS>BOND
   1    1    2 ar
   2    1    6 ar
   3    1   37 1
   4    2    3 ar
   5    2   38 1
   6    3    4 ar
   7    3   26 1
   8    4    5 ar
   9    4    7 1
  10    5    6 ar
  11    5   39 1
  12    6   40 1
  13    7    8 1
  14    7   33 1
  15    7   41 1
  16    8    9 1
  17    9   10 1
  18    9   42 1
  19    9   43 1
  20   10   11 1
  21   10   14 1
  22   10   44 1
  23   11   12 1
  24   11   45 1
  25   11   46 1
  26   12   13 1
  27   12   47 1
  28   13   15 1
  29   13   16 1
  30   13   17 1
  31   14   48 1
  32   15   18 1
  33   15   49 1
  34   15   50 1
  35   16   51 1
  36   16   52 1
  37   16   53 1
  38   17   54 1
  39   17   55 1
  40   17   56 1
  41   18   19 ar
  42   18   23 ar
  43   19   20 ar
  44   19   57 1
  45   20   21 ar
  46   20   58 1
  47   21   22 ar
  48   21   24 1
  49   22   23 ar
  50   22   25 1
  51   23   59 1
  52   26   27 ar
  53   26   31 ar
  54   27   28 ar
  55   27   60 1
  56   28   29 ar
  57   28   32 1
  58   29   30 ar
  59   29   34 1
  60   30   31 ar
  61   30   61 1
  62   31   62 1
  63   32   63 1
  64   32   64 1
  65   32   65 1
  66   33   66 1
  67   33   67 1
  68   33   68 1
  69   34   35 2
  70   34   36 1
  71   36   69 1

#	End of record

