#	Name: ASD03180024
#	Creating user name:	WinNT
#	Creation time:	15. 06. 2019 20:33

#	Modifying user name:	WinNT
#	Modification time:	15. 06. 2019 20:33

#	Program:	/corina/corina34_cracker 3.40 0067  02.08.2006

@<TRIPOS>MOLECULE
ASD03180024
  51   53    0    0    0
SMALL
NO_CHARGES


@<TRIPOS>ATOM
   1 C1             0.7552    -0.3619    -0.7839 C.ar    
   2 C2             1.0844    -1.4971    -1.5008 C.ar    
   3 C3             2.4057    -1.7599    -1.8107 C.ar    
   4 C4             3.3977    -0.8872    -1.4042 C.ar    
   5 C5             3.0685     0.2484    -0.6881 C.ar    
   6 C6             1.7474     0.5105    -0.3770 C.ar    
   7 S7             4.3331     1.3601    -0.1690 S.o2    
   8 O8             5.5053     0.5777     0.0128 O.2     
   9 N9             4.6424     2.3779    -1.4382 N.am    
  10 O10            3.7662     2.1611     0.8587 O.2     
  11 C11            3.8395     3.5900    -1.6176 C.3     
  12 C12            5.7190     2.0661    -2.3816 C.3     
  13 C13            6.9379     2.8844    -2.0412 C.ar    
  14 C14            4.5092     4.7444    -0.9175 C.2     
  15 N15            3.9468     5.9688    -0.9478 N.am    
  16 C16            4.5035     7.0141    -0.1992 C.ar    
  17 O17            5.5544     4.5715    -0.3268 O.2     
  18 C18            7.9208     2.3541    -1.2265 C.ar    
  19 C19            9.0391     3.1038    -0.9143 C.ar    
  20 C20            9.1754     4.3858    -1.4171 C.ar    
  21 C21            8.1923     4.9169    -2.2322 C.ar    
  22 C22            7.0755     4.1640    -2.5486 C.ar    
  23 C23            4.4351     8.3186    -0.6701 C.ar    
  24 C24            4.9834     9.3489     0.0680 C.ar    
  25 C25            5.6031     9.0813     1.2797 C.ar    
  26 C26            5.6725     7.7777     1.7513 C.ar    
  27 C27            5.1186     6.7467     1.0163 C.ar    
  28 Cl28           6.4488     7.4432     3.2676 Cl      
  29 O29            6.1432    10.0965     2.0058 O.3     
  30 C30            6.0360    11.4129     1.4602 C.3     
  31 Cl31           5.8442     4.8272    -3.5770 Cl      
  32 Cl32          10.5799     5.3276    -1.0243 Cl      
  33 H33           -0.2775    -0.1542    -0.5456 H       
  34 H34            0.3093    -2.1788    -1.8184 H       
  35 H35            2.6629    -2.6471    -2.3702 H       
  36 H36            4.4301    -1.0929    -1.6458 H       
  37 H37            1.4902     1.3976     0.1828 H       
  38 H38            3.7500     3.8125    -2.6809 H       
  39 H39            2.8473     3.4346    -1.1941 H       
  40 H40            5.9635     1.0058    -2.3164 H       
  41 H41            5.3940     2.3025    -3.3948 H       
  42 H42            3.1566     6.1263    -1.4878 H       
  43 H43            7.8147     1.3538    -0.8336 H       
  44 H44            9.8065     2.6892    -0.2775 H       
  45 H45            8.2981     5.9176    -2.6245 H       
  46 H46            3.9533     8.5274    -1.6139 H       
  47 H47            4.9301    10.3634    -0.2985 H       
  48 H48            5.1683     5.7329     1.3851 H       
  49 H49            6.5061    12.1262     2.1371 H       
  50 H50            6.5359    11.4469     0.4922 H       
  51 H51            4.9841    11.6697     1.3350 H       
@<TRIPOS>BOND
   1    1    2 ar
   2    1    6 ar
   3    1   33 1
   4    2    3 ar
   5    2   34 1
   6    3    4 ar
   7    3   35 1
   8    4    5 ar
   9    4   36 1
  10    5    6 ar
  11    5    7 1
  12    6   37 1
  13    7    8 2
  14    7    9 am
  15    7   10 2
  16    9   11 1
  17    9   12 1
  18   11   14 1
  19   11   38 1
  20   11   39 1
  21   12   13 1
  22   12   40 1
  23   12   41 1
  24   13   18 ar
  25   13   22 ar
  26   14   15 am
  27   14   17 2
  28   15   16 1
  29   15   42 1
  30   16   23 ar
  31   16   27 ar
  32   18   19 ar
  33   18   43 1
  34   19   20 ar
  35   19   44 1
  36   20   21 ar
  37   20   32 1
  38   21   22 ar
  39   21   45 1
  40   22   31 1
  41   23   24 ar
  42   23   46 1
  43   24   25 ar
  44   24   47 1
  45   25   26 ar
  46   25   29 1
  47   26   27 ar
  48   26   28 1
  49   27   48 1
  50   29   30 1
  51   30   49 1
  52   30   50 1
  53   30   51 1

#	End of record

