#	Name: ASD03731549
#	Creating user name:	WinNT
#	Creation time:	15. 06. 2019 20:45

#	Modifying user name:	WinNT
#	Modification time:	15. 06. 2019 20:45

#	Program:	/corina/corina34_cracker 3.40 0067  02.08.2006

@<TRIPOS>MOLECULE
ASD03731549
  37   38    0    0    0
SMALL
NO_CHARGES


@<TRIPOS>ATOM
   1 C1             0.3763     1.0932     1.9806 C.2     
   2 C2             0.2923    -0.2828     1.4530 C.ar    
   3 C3             1.3754    -0.8361     0.7641 C.ar    
   4 C4             1.2921    -2.1240     0.2727 C.ar    
   5 C5             0.1291    -2.8694     0.4644 C.ar    
   6 C6            -0.9464    -2.3196     1.1486 C.ar    
   7 C7            -0.8675    -1.0367     1.6460 C.ar    
   8 O8             1.3884     1.7465     1.8162 O.2     
   9 N9            -0.6709     1.6272     2.6398 N.am    
  10 S10           -0.5767     3.1709     3.2318 S.o2    
  11 O11           -1.8280     3.3775     3.8727 O.2     
  12 O12            0.6369     3.1893     3.9709 O.2     
  13 C13           -0.4381     4.2145     1.7545 C.3     
  14 O14            2.3439    -2.6651    -0.3983 O.3     
  15 C15            3.5029    -1.8447    -0.5581 C.3     
  16 O16            0.0484    -4.1354    -0.0196 O.3     
  17 C17           -1.1389    -4.7870     0.0928 C.ar    
  18 C18           -2.0931    -4.6697    -0.9078 C.ar    
  19 C19           -3.2998    -5.3337    -0.7916 C.ar    
  20 C20           -3.5561    -6.1153     0.3228 C.ar    
  21 C21           -2.6056    -6.2328     1.3208 C.ar    
  22 C22           -1.3962    -5.5748     1.2055 C.ar    
  23 Cl23          -5.0725    -6.9481     0.4674 Cl      
  24 Cl24          -4.4946    -5.1874    -2.0424 Cl      
  25 H25            2.2752    -0.2575     0.6162 H       
  26 H26           -1.8454    -2.8999     1.2951 H       
  27 H27           -1.7042    -0.6128     2.1815 H       
  28 H28           -1.4799     1.1074     2.7674 H       
  29 H29           -1.3172     4.0728     1.1258 H       
  30 H30           -0.3702     5.2605     2.0536 H       
  31 H31            0.4562     3.9374     1.1964 H       
  32 H32            4.2649    -2.3957    -1.1093 H       
  33 H33            3.2365    -0.9429    -1.1094 H       
  34 H34            3.8914    -1.5697     0.4225 H       
  35 H35           -1.8932    -4.0600    -1.7765 H       
  36 H36           -2.8073    -6.8427     2.1889 H       
  37 H37           -0.6528    -5.6706     1.9831 H       
@<TRIPOS>BOND
   1    1    2 1
   2    1    8 2
   3    1    9 am
   4    2    3 ar
   5    2    7 ar
   6    3    4 ar
   7    3   25 1
   8    4    5 ar
   9    4   14 1
  10    5    6 ar
  11    5   16 1
  12    6    7 ar
  13    6   26 1
  14    7   27 1
  15    9   10 am
  16    9   28 1
  17   10   11 2
  18   10   12 2
  19   10   13 1
  20   13   29 1
  21   13   30 1
  22   13   31 1
  23   14   15 1
  24   15   32 1
  25   15   33 1
  26   15   34 1
  27   16   17 1
  28   17   18 ar
  29   17   22 ar
  30   18   19 ar
  31   18   35 1
  32   19   20 ar
  33   19   24 1
  34   20   21 ar
  35   20   23 1
  36   21   22 ar
  37   21   36 1
  38   22   37 1

#	End of record

