#	Name: ASD03730105
#	Creating user name:	WinNT
#	Creation time:	15. 06. 2019 20:43

#	Modifying user name:	WinNT
#	Modification time:	15. 06. 2019 20:43

#	Program:	/corina/corina34_cracker 3.40 0067  02.08.2006

@<TRIPOS>MOLECULE
ASD03730105
  55   61    0    0    0
SMALL
NO_CHARGES


@<TRIPOS>ATOM
   1 C1            -0.0184     1.5028     0.0103 C.2     
   2 C2             0.0021    -0.0041     0.0020 C.3     
   3 O3             1.0236     2.1234     0.0037 O.2     
   4 N4            -1.1946     2.1607     0.0195 N.am    
   5 O5             6.2459     2.8794     2.0976 O.3     
   6 C6             7.6663     2.8233     2.3260 C.3     
   7 O7             7.8789     1.4934     2.8350 O.3     
   8 C8             6.8679     0.7368     2.3152 C.ar    
   9 C9             5.8636     1.5896     1.8629 C.ar    
  10 C10            6.7212    -0.6329     2.1884 C.ar    
  11 C11            5.5735    -1.1688     1.6121 C.ar    
  12 C12            4.5736    -0.3071     1.1716 C.ar    
  13 C13            4.7194     1.0592     1.2910 C.ar    
  14 O14            5.2412    -2.4710     1.3795 O.3     
  15 C15            3.4673    -1.1739     0.6323 C.3     
  16 C16            3.8195    -2.5682     1.1684 C.3     
  17 N17            1.3897    -0.4735    -0.0138 N.am    
  18 C18            2.1130    -0.7212     1.0965 C.2     
  19 C19            3.4026    -1.1504    -0.8661 C.ar    
  20 C20            4.3041    -1.4527    -1.8622 C.ar    
  21 C21            3.9367    -1.3289    -3.1903 C.ar    
  22 C22            2.6624    -0.9003    -3.5148 C.ar    
  23 C23            1.7562    -0.5954    -2.5207 C.ar    
  24 C24            2.1172    -0.7175    -1.1811 C.ar    
  25 O25            1.7424    -0.6020     2.2452 O.2     
  26 C26           -1.2145     3.6256     0.0275 C.3     
  27 O27           -6.5323     5.4243     0.3234 O.3     
  28 C28           -6.5049     5.8450     1.7002 C.3     
  29 O29           -5.4524     5.0514     2.2796 O.3     
  30 C30           -4.6015     4.7674     1.2507 C.ar    
  31 C31           -5.2656     4.9967     0.0477 C.ar    
  32 C32           -3.2897     4.3231     1.2396 C.ar    
  33 C33           -2.6419     4.1085     0.0369 C.ar    
  34 C34           -3.3006     4.3365    -1.1566 C.ar    
  35 C35           -4.6105     4.7797    -1.1531 C.ar    
  36 H36           -0.4983    -0.3791     0.8948 H       
  37 H37           -0.5153    -0.3696    -0.8850 H       
  38 H38           -2.0280     1.6644     0.0207 H       
  39 H39            8.2103     2.9676     1.3925 H       
  40 H40            7.9653     3.5680     3.0637 H       
  41 H41            7.5027    -1.2907     2.5390 H       
  42 H42            3.9391     1.7171     0.9379 H       
  43 H43            3.5894    -3.3363     0.4301 H       
  44 H44            3.3012    -2.7643     2.1070 H       
  45 H45            5.2987    -1.7870    -1.6065 H       
  46 H46            4.6432    -1.5667    -3.9717 H       
  47 H47            2.3756    -0.8035    -4.5515 H       
  48 H48            0.7631    -0.2608    -2.7820 H       
  49 H49           -0.7014     3.9910     0.9171 H       
  50 H50           -0.7098     4.0007    -0.8628 H       
  51 H51           -6.2678     6.9065     1.7716 H       
  52 H52           -7.4573     5.6308     2.1851 H       
  53 H53           -2.7724     4.1448     2.1707 H       
  54 H54           -2.7913     4.1677    -2.0939 H       
  55 H55           -5.1230     4.9563    -2.0872 H       
@<TRIPOS>BOND
   1    1    2 1
   2    1    3 2
   3    1    4 am
   4    2   17 1
   5    2   36 1
   6    2   37 1
   7    4   26 1
   8    4   38 1
   9    5    6 1
  10    5    9 1
  11    6    7 1
  12    6   39 1
  13    6   40 1
  14    7    8 1
  15    8    9 ar
  16    8   10 ar
  17    9   13 ar
  18   10   11 ar
  19   10   41 1
  20   11   12 ar
  21   11   14 1
  22   12   13 ar
  23   12   15 1
  24   13   42 1
  25   14   16 1
  26   15   16 1
  27   15   18 1
  28   15   19 1
  29   16   43 1
  30   16   44 1
  31   17   18 am
  32   17   24 1
  33   18   25 2
  34   19   20 ar
  35   19   24 ar
  36   20   21 ar
  37   20   45 1
  38   21   22 ar
  39   21   46 1
  40   22   23 ar
  41   22   47 1
  42   23   24 ar
  43   23   48 1
  44   26   33 1
  45   26   49 1
  46   26   50 1
  47   27   28 1
  48   27   31 1
  49   28   29 1
  50   28   51 1
  51   28   52 1
  52   29   30 1
  53   30   31 ar
  54   30   32 ar
  55   31   35 ar
  56   32   33 ar
  57   32   53 1
  58   33   34 ar
  59   34   35 ar
  60   34   54 1
  61   35   55 1

#	End of record

