#	Name: ASD02038805
#	Creating user name:	WinNT
#	Creation time:	15. 06. 2019 20:17

#	Modifying user name:	WinNT
#	Modification time:	15. 06. 2019 20:17

#	Program:	/corina/corina34_cracker 3.40 0067  02.08.2006

@<TRIPOS>MOLECULE
ASD02038805
  43   45    0    0    0
SMALL
NO_CHARGES


@<TRIPOS>ATOM
   1 C1            -1.2823    -0.8512     0.4654 C.2     
   2 C2            -0.0606    -0.0343     0.3016 C.2     
   3 N3             1.1368    -0.6350     0.1537 N.am    
   4 C4             1.2419    -2.0930     0.2502 C.3     
   5 C5             1.2141    -2.6913    -1.1326 C.ar    
   6 C6             2.3334     0.1702    -0.1037 C.3     
   7 O7            -0.1363     1.1789     0.3004 O.2     
   8 N8            -1.3378    -2.1952     0.4965 N.2     
   9 C9            -2.5932    -2.5285     0.6561 C.2     
  10 N10           -3.3112    -1.3922     0.7234 N.pl3   
  11 N11           -2.5059    -0.3925     0.6121 N.2     
  12 C12            2.3963    -3.0120    -1.7677 C.ar    
  13 C13            2.1216     1.0143    -1.3643 C.3     
  14 C14            3.3443     1.9097    -1.5808 C.3     
  15 O15            3.5439     2.7285    -0.4268 O.3     
  16 C16            3.7939     1.9942     0.7734 C.3     
  17 C17            2.5892     1.1023     1.0846 C.3     
  18 C18            0.0032    -2.9230    -1.7602 C.ar    
  19 C19           -0.0315    -3.4730    -3.0296 C.ar    
  20 C20            1.1428    -3.7939    -3.6779 C.ar    
  21 C21            2.3686    -3.5667    -3.0486 C.ar    
  22 C22           -4.7631    -1.3063     0.8994 C.3     
  23 C23            3.5918    -3.8970    -3.7159 C.1     
  24 N24            4.5622    -4.1591    -4.2452 N.1     
  25 H25            2.1778    -2.3581     0.7421 H       
  26 H26            0.4042    -2.4800     0.8304 H       
  27 H27            3.1916    -0.4868    -0.2449 H       
  28 H28           -2.9827    -3.5337     0.7217 H       
  29 H29            3.3408    -2.8341    -1.2751 H       
  30 H30            1.9937     0.3579    -2.2250 H       
  31 H31            1.2332     1.6342    -1.2426 H       
  32 H32            4.2254     1.2887    -1.7428 H       
  33 H33            3.1810     2.5435    -2.4524 H       
  34 H34            4.6809     1.3744     0.6423 H       
  35 H35            3.9544     2.6890     1.5978 H       
  36 H36            1.7103     1.7239     1.2558 H       
  37 H37            2.7958     0.5087     1.9752 H       
  38 H38           -0.9193    -2.6739    -1.2569 H       
  39 H39           -0.9803    -3.6516    -3.5136 H       
  40 H40            1.1143    -4.2237    -4.6683 H       
  41 H41           -4.9984    -1.2665     1.9630 H       
  42 H42           -5.1356    -0.4059     0.4109 H       
  43 H43           -5.2354    -2.1825     0.4553 H       
@<TRIPOS>BOND
   1    1    2 1
   2    1    8 1
   3    1   11 2
   4    2    3 am
   5    2    7 2
   6    3    4 1
   7    3    6 1
   8    4    5 1
   9    4   25 1
  10    4   26 1
  11    5   12 ar
  12    5   18 ar
  13    6   13 1
  14    6   17 1
  15    6   27 1
  16    8    9 2
  17    9   10 1
  18    9   28 1
  19   10   11 1
  20   10   22 1
  21   12   21 ar
  22   12   29 1
  23   13   14 1
  24   13   30 1
  25   13   31 1
  26   14   15 1
  27   14   32 1
  28   14   33 1
  29   15   16 1
  30   16   17 1
  31   16   34 1
  32   16   35 1
  33   17   36 1
  34   17   37 1
  35   18   19 ar
  36   18   38 1
  37   19   20 ar
  38   19   39 1
  39   20   21 ar
  40   20   40 1
  41   21   23 1
  42   22   41 1
  43   22   42 1
  44   22   43 1
  45   23   24 3

#	End of record

