#	Name: ASD00431038
#	Creating user name:	WinNT
#	Creation time:	15. 06. 2019 18:35

#	Modifying user name:	WinNT
#	Modification time:	15. 06. 2019 18:35

#	Program:	/corina/corina34_cracker 3.40 0067  02.08.2006

@<TRIPOS>MOLECULE
ASD00431038
  77   79    0    0    0
SMALL
NO_CHARGES


@<TRIPOS>ATOM
   1 C1            -0.4688     1.8126     0.4534 C.2     
   2 C2            -0.7291     0.3687     0.0437 C.3     
   3 C3            -2.1392     0.1331     0.6229 C.3     
   4 C4            -2.6912     1.5389     0.7669 C.2     
   5 N5            -1.7113     2.4281     0.5140 N.am    
   6 C6            -2.9924    -0.6859    -0.3477 C.3     
   7 O7            -3.8338     1.8179     1.0629 O.2     
   8 C8            -4.3039    -1.0347     0.3076 C.2     
   9 N9            -5.2216    -1.7578    -0.3643 N.am    
  10 C10           -6.4965    -2.0968     0.2728 C.3     
  11 C11           -7.3497    -2.9158    -0.6979 C.3     
  12 C12           -8.6812    -3.2699    -0.0326 C.3     
  13 O13           -4.5335    -0.6646     1.4395 O.2     
  14 C14           -1.9298     3.8646     0.3269 C.3     
  15 C15           -2.3102     4.1324    -1.1065 C.ar    
  16 C16           -3.6400     4.2875    -1.4512 C.ar    
  17 C17           -1.3283     4.2285    -2.0762 C.ar    
  18 C18           -1.6777     4.4743    -3.3921 C.ar    
  19 C19           -3.0086     4.6238    -3.7373 C.ar    
  20 C20           -3.9896     4.5330    -2.7655 C.ar    
  21 Cl21           0.3420     4.0413    -1.6419 Cl      
  22 Cl22          -3.4479     4.9328    -5.3881 Cl      
  23 C23            0.7097     2.3055     0.7470 C.2     
  24 C24            1.9441     1.4484     0.7527 C.3     
  25 N25            1.6307     0.0500     0.4702 N.am    
  26 C26            0.3112    -0.4980     0.7616 C.3     
  27 C27            2.5716    -0.7460    -0.0751 C.2     
  28 O28            2.3188    -1.9105    -0.3132 O.2     
  29 O29            3.7917    -0.2510    -0.3562 O.3     
  30 C30            4.7552    -1.1657    -0.9423 C.3     
  31 O31           -9.4781    -4.0349    -0.9392 O.3     
  32 C32          -10.7499    -4.4194    -0.4130 C.3     
  33 C33            4.2114    -1.6973    -2.2700 C.3     
  34 C34            6.0730    -0.4288    -1.1895 C.3     
  35 C35            4.9963    -2.3347     0.0148 C.3     
  36 C36           -0.6883     0.1810    -1.4510 C.2     
  37 O37           -0.5846     1.1407    -2.1777 O.2     
  38 O38           -0.7670    -1.0523    -1.9749 O.3     
  39 C39           -0.8234    -2.6289    -3.8301 C.3     
  40 C40           -0.7214    -1.1577    -3.4224 C.3     
  41 H41           -2.0794    -0.3585     1.5939 H       
  42 H42           -3.1803    -0.1014    -1.2484 H       
  43 H43           -2.4637    -1.6016    -0.6125 H       
  44 H44           -5.0379    -2.0538    -1.2696 H       
  45 H45           -6.3086    -2.6813     1.1734 H       
  46 H46           -7.0252    -1.1812     0.5376 H       
  47 H47           -7.5376    -2.3314    -1.5986 H       
  48 H48           -6.8210    -3.8315    -0.9627 H       
  49 H49           -8.4933    -3.8544     0.8680 H       
  50 H50           -9.2099    -2.3542     0.2322 H       
  51 H51           -2.7325     4.1987     0.9843 H       
  52 H52           -1.0146     4.4056     0.5670 H       
  53 H53           -4.4059     4.2164    -0.6931 H       
  54 H54           -0.9114     4.5498    -4.1494 H       
  55 H55           -5.0289     4.6498    -3.0349 H       
  56 H56            0.7959     3.3541     0.9907 H       
  57 H57            2.6368     1.8175    -0.0037 H       
  58 H58            2.4193     1.5157     1.7313 H       
  59 H59            0.1237    -0.4624     1.8348 H       
  60 H60            0.2508    -1.5271     0.4077 H       
  61 H61          -11.3215    -3.5275    -0.1561 H       
  62 H62          -11.2933    -4.9962    -1.1614 H       
  63 H63          -10.6049    -5.0277     0.4797 H       
  64 H64            4.0396    -0.8644    -2.9518 H       
  65 H65            4.9346    -2.3839    -2.7100 H       
  66 H66            3.2725    -2.2223    -2.0939 H       
  67 H67            6.4604    -0.0500    -0.2437 H       
  68 H68            6.7963    -1.1154    -1.6295 H       
  69 H69            5.9013     0.4041    -1.8713 H       
  70 H70            4.0574    -2.8597     0.1908 H       
  71 H71            5.7195    -3.0213    -0.4252 H       
  72 H72            5.3837    -1.9560     0.9606 H       
  73 H73           -0.7891    -2.7080    -4.9166 H       
  74 H74            0.0097    -3.1840    -3.3989 H       
  75 H75           -1.7634    -3.0427    -3.4651 H       
  76 H76           -1.5544    -0.6026    -3.8536 H       
  77 H77            0.2187    -0.7439    -3.7873 H       
@<TRIPOS>BOND
   1    1    2 1
   2    1   23 2
   3    1    5 1
   4    2   36 1
   5    2    3 1
   6    2   26 1
   7    3    4 1
   8    3    6 1
   9    3   41 1
  10    4    5 am
  11    4    7 2
  12    5   14 1
  13    6    8 1
  14    6   42 1
  15    6   43 1
  16    8    9 am
  17    8   13 2
  18    9   10 1
  19    9   44 1
  20   10   11 1
  21   10   45 1
  22   10   46 1
  23   11   12 1
  24   11   47 1
  25   11   48 1
  26   12   31 1
  27   12   49 1
  28   12   50 1
  29   14   15 1
  30   14   51 1
  31   14   52 1
  32   15   16 ar
  33   15   17 ar
  34   16   20 ar
  35   16   53 1
  36   17   18 ar
  37   17   21 1
  38   18   19 ar
  39   18   54 1
  40   19   20 ar
  41   19   22 1
  42   20   55 1
  43   23   24 1
  44   23   56 1
  45   24   25 1
  46   24   57 1
  47   24   58 1
  48   25   26 1
  49   25   27 am
  50   26   59 1
  51   26   60 1
  52   27   28 2
  53   27   29 1
  54   29   30 1
  55   30   33 1
  56   30   34 1
  57   30   35 1
  58   31   32 1
  59   32   61 1
  60   32   62 1
  61   32   63 1
  62   33   64 1
  63   33   65 1
  64   33   66 1
  65   34   67 1
  66   34   68 1
  67   34   69 1
  68   35   70 1
  69   35   71 1
  70   35   72 1
  71   36   37 2
  72   36   38 1
  73   38   40 1
  74   39   40 1
  75   39   73 1
  76   39   74 1
  77   39   75 1
  78   40   76 1
  79   40   77 1

#	End of record

