#	Name: ASD04988001
#	Creating user name:	WinNT
#	Creation time:	15. 06. 2019 20:56

#	Modifying user name:	WinNT
#	Modification time:	15. 06. 2019 20:56

#	Program:	/corina/corina34_cracker 3.40 0067  02.08.2006

@<TRIPOS>MOLECULE
ASD04988001
  24   24    0    0    0
SMALL
NO_CHARGES


@<TRIPOS>ATOM
   1 O1            -0.0173     1.4248     0.0099 O.3     
   2 C2             0.0021    -0.0041     0.0020 C.3     
   3 C3            -1.4341    -0.5342     0.0129 C.3     
   4 O4            -2.1422    -0.0180    -1.1159 O.3     
   5 C5            -1.4059    -2.0642    -0.0564 C.3     
   6 O6            -2.7428    -2.5645    -0.1208 O.3     
   7 C7            -0.6372    -2.4934    -1.3099 C.3     
   8 O8            -0.5419    -3.9187    -1.3469 O.3     
   9 C9             0.7682    -1.8876    -1.2697 C.3     
  10 O10            0.6697    -0.4652    -1.1743 O.3     
  11 C11            1.5221    -2.2624    -2.5472 C.3     
  12 O12            2.8701    -1.7965    -2.4588 O.3     
  13 H13            0.8606     1.8301     0.0037 H       
  14 H14            0.5296    -0.3653     0.8848 H       
  15 H15           -1.9317    -0.2193     0.9301 H       
  16 H16           -2.1950     0.9472    -1.1393 H       
  17 H17           -0.9106    -2.4602     0.8301 H       
  18 H18           -3.2898    -2.3240     0.6396 H       
  19 H19           -1.1618    -2.1402    -2.1977 H       
  20 H20           -1.3971    -4.3697    -1.3688 H       
  21 H21            1.3058    -2.2736    -0.4036 H       
  22 H22            1.5192    -3.3459    -2.6662 H       
  23 H23            1.0339    -1.8013    -3.4057 H       
  24 H24            3.4082    -1.9996    -3.2361 H       
@<TRIPOS>BOND
   1    1    2 1
   2    1   13 1
   3    2    3 1
   4    2   10 1
   5    2   14 1
   6    3    4 1
   7    3    5 1
   8    3   15 1
   9    4   16 1
  10    5    6 1
  11    5    7 1
  12    5   17 1
  13    6   18 1
  14    7    8 1
  15    7    9 1
  16    7   19 1
  17    8   20 1
  18    9   10 1
  19    9   11 1
  20    9   21 1
  21   11   12 1
  22   11   22 1
  23   11   23 1
  24   12   24 1

#	End of record

