#	Name: ASD01850068
#	Creating user name:	WinNT
#	Creation time:	15. 06. 2019 19:38

#	Modifying user name:	WinNT
#	Modification time:	15. 06. 2019 19:38

#	Program:	/corina/corina34_cracker 3.40 0067  02.08.2006

@<TRIPOS>MOLECULE
ASD01850068
  60   63    0    0    0
SMALL
NO_CHARGES


@<TRIPOS>ATOM
   1 C1             0.0033     1.4996     1.0779 C.ar    
   2 C2             0.1501     0.2129     0.5976 C.ar    
   3 C3             1.3538    -0.1878     0.0474 C.ar    
   4 C4             2.4130     0.6977    -0.0235 C.ar    
   5 C5             2.2714     1.9858     0.4559 C.ar    
   6 C6             1.0649     2.3904     1.0079 C.ar    
   7 C7             5.1917     2.1093     1.9967 C.3     
   8 N8             4.0899     3.0227     1.6835 N.am    
   9 C9             4.6306     0.7188     2.3011 C.3     
  10 C10            3.6864     3.9295     2.5953 C.2     
  11 C11            4.3204     3.9571     3.9622 C.3     
  12 O12            2.8131     4.7232     2.3157 O.2     
  13 C13            3.8664     5.2131     4.7095 C.3     
  14 C14            3.8958     2.7134     4.7464 C.3     
  15 C15            4.5695     2.7274     6.1221 C.3     
  16 N16            4.2553     3.9980     6.7896 N.am    
  17 C17            4.5397     5.2555     6.0848 C.3     
  18 S18            3.5926     4.0126     8.3071 S.o2    
  19 C19            4.9261     4.0450     9.4583 C.ar    
  20 C20            5.4239     5.2427     9.8825 C.ar    
  21 C21            6.4827     5.2672    10.7972 C.ar    
  22 C22            7.0231     4.0558    11.2700 C.ar    
  23 C23            6.4940     2.8487    10.8193 C.ar    
  24 C24            5.4572     2.8506     9.9301 C.ar    
  25 C25            7.2388     6.3340    11.4451 C.2     
  26 N26            8.1289     5.7786    12.2169 N.2     
  27 N27            8.0304     4.3855    12.1386 N.pl3   
  28 O28            2.9186     5.2567     8.4387 O.2     
  29 O29            2.9476     2.7577     8.4754 O.2     
  30 C30            3.4267     2.9503     0.3792 C.3     
  31 O31            0.9232     3.6566     1.4805 O.3     
  32 C32           -0.3472     4.0037     2.0353 C.3     
  33 H33           -0.9384     1.8135     1.5035 H       
  34 H34           -0.6758    -0.4808     0.6522 H       
  35 H35            1.4668    -1.1944    -0.3273 H       
  36 H36            3.3521     0.3824    -0.4537 H       
  37 H37            5.8677     2.0496     1.1437 H       
  38 H38            5.7352     2.4801     2.8658 H       
  39 H39            3.7501     0.8135     2.9366 H       
  40 H40            4.3546     0.2263     1.3687 H       
  41 H41            5.3875     0.1261     2.8149 H       
  42 H42            5.4055     3.9682     3.8590 H       
  43 H43            4.1486     6.0979     4.1388 H       
  44 H44            2.7839     5.1904     4.8349 H       
  45 H45            2.8130     2.7142     4.8715 H       
  46 H46            4.1989     1.8190     4.2020 H       
  47 H47            4.1945     1.8975     6.7211 H       
  48 H48            5.6488     2.6352     6.0014 H       
  49 H49            5.6167     5.3694     5.9611 H       
  50 H50            4.1451     6.0936     6.6592 H       
  51 H51            5.0032     6.1667     9.5140 H       
  52 H52            6.9005     1.9134    11.1747 H       
  53 H53            5.0500     1.9122     9.5837 H       
  54 H54            7.0873     7.3946    11.3090 H       
  55 H55            8.5858     3.7541    12.6220 H       
  56 H56            4.1381     2.6062    -0.3715 H       
  57 H57            3.0576     3.9383     0.1040 H       
  58 H58           -0.3249     5.0394     2.3742 H       
  59 H59           -1.1197     3.8866     1.2754 H       
  60 H60           -0.5658     3.3498     2.8795 H       
@<TRIPOS>BOND
   1    1    2 ar
   2    1    6 ar
   3    1   33 1
   4    2    3 ar
   5    2   34 1
   6    3    4 ar
   7    3   35 1
   8    4    5 ar
   9    4   36 1
  10    5    6 ar
  11    5   30 1
  12    6   31 1
  13    7    8 1
  14    7    9 1
  15    7   37 1
  16    7   38 1
  17    8   10 am
  18    8   30 1
  19    9   39 1
  20    9   40 1
  21    9   41 1
  22   10   11 1
  23   10   12 2
  24   11   13 1
  25   11   14 1
  26   11   42 1
  27   13   17 1
  28   13   43 1
  29   13   44 1
  30   14   15 1
  31   14   45 1
  32   14   46 1
  33   15   16 1
  34   15   47 1
  35   15   48 1
  36   16   17 1
  37   16   18 am
  38   17   49 1
  39   17   50 1
  40   18   19 1
  41   18   28 2
  42   18   29 2
  43   19   20 ar
  44   19   24 ar
  45   20   21 ar
  46   20   51 1
  47   21   22 ar
  48   21   25 1
  49   22   23 ar
  50   22   27 1
  51   23   24 ar
  52   23   52 1
  53   24   53 1
  54   25   26 2
  55   25   54 1
  56   26   27 1
  57   27   55 1
  58   30   56 1
  59   30   57 1
  60   31   32 1
  61   32   58 1
  62   32   59 1
  63   32   60 1

#	End of record

