#	Name: ASD00842085
#	Creating user name:	WinNT
#	Creation time:	15. 06. 2019 18:43

#	Modifying user name:	WinNT
#	Modification time:	15. 06. 2019 18:43

#	Program:	/corina/corina34_cracker 3.40 0067  02.08.2006

@<TRIPOS>MOLECULE
ASD00842085
  88   93    0    0    0
SMALL
NO_CHARGES


@<TRIPOS>ATOM
   1 C1             0.9869     1.5622    -0.3459 C.ar    
   2 C2             1.3006     0.2365    -0.6068 C.ar    
   3 C3             1.2421    -0.7017     0.4138 C.ar    
   4 C4             0.8718    -0.3136     1.6866 C.ar    
   5 C5             0.5590     1.0086     1.9441 C.ar    
   6 C6             0.6170     1.9453     0.9291 C.ar    
   7 C7             1.5819    -2.1429     0.1337 C.3     
   8 C8             1.3249    -2.9959     1.3577 C.2     
   9 C9             0.7754    -2.6602    -1.0591 C.3     
  10 C10           -0.6939    -2.4428    -0.8043 C.2     
  11 N11           -1.6060    -2.9100    -1.6797 N.am    
  12 O12           -1.0556    -1.8473     0.1884 O.2     
  13 C13           -3.0335    -2.6093    -1.5053 C.3     
  14 C14           -3.8190    -3.9245    -1.5124 C.3     
  15 C15           -3.4919    -4.7025    -2.7890 C.3     
  16 C16           -1.9977    -5.0320    -2.8190 C.3     
  17 C17           -1.1910    -3.7246    -2.8298 C.3     
  18 N18           -4.2686    -5.9491    -2.8150 N.3     
  19 C19           -4.0706    -6.6666    -4.0821 C.3     
  20 C20           -4.8311    -7.9941    -4.0378 C.3     
  21 N21           -6.2576    -7.7308    -3.8023 N.3     
  22 C22           -6.4556    -7.0132    -2.5353 C.3     
  23 C23           -5.6951    -5.6858    -2.5796 C.3     
  24 C24           -7.0343    -8.9774    -3.8283 C.3     
  25 O25            0.2575    -3.1608     1.9096 O.2     
  26 N26            2.5012    -3.5365     1.7175 N.am    
  27 C27            3.0641    -2.2982    -0.1183 C.ar    
  28 C28            3.5422    -3.1471     0.8720 C.ar    
  29 C29            3.9097    -1.7815    -1.0739 C.ar    
  30 C30            5.7451    -2.9531    -0.0708 C.ar    
  31 C31            4.8968    -3.4716     0.8873 C.ar    
  32 Cl32           7.4318    -3.3629    -0.0440 Cl      
  33 C33            2.4485    -6.1931     2.4345 C.ar    
  34 C34            3.5219    -6.9265     1.9637 C.ar    
  35 C35            1.1835    -6.7507     2.4560 C.ar    
  36 C36            0.9891    -8.0426     2.0070 C.ar    
  37 C37            2.0645    -8.7806     1.5342 C.ar    
  38 C38            3.3327    -8.2186     1.5132 C.ar    
  39 O39            1.8759   -10.0518     1.0923 O.3     
  40 H40            4.5091    -6.4887     1.9479 H       
  41 C41            3.0284   -10.7520     0.6196 C.3     
  42 C42            5.2565    -2.1079    -1.0542 C.ar    
  43 F43            6.0900    -1.6036    -1.9902 F       
  44 S44            2.6944    -4.5476     3.0146 S.o2    
  45 O45            4.0605    -4.4561     3.3948 O.2     
  46 O46            1.6202    -4.2706     3.9028 O.2     
  47 O47            1.6643    -0.1429    -1.8601 O.3     
  48 C48            2.1330     0.2716    -4.1944 C.3     
  49 C49            1.5941     0.8507    -2.8847 C.3     
  50 H50            1.0360     2.2951    -1.1376 H       
  51 H51            0.8261    -1.0435     2.4814 H       
  52 H52            0.2690     1.3099     2.9398 H       
  53 H53            0.3722     2.9773     1.1327 H       
  54 H54            1.0717    -2.1215    -1.9592 H       
  55 H55            0.9673    -3.7248    -1.1932 H       
  56 H56           -3.1858    -2.0979    -0.5548 H       
  57 H57           -3.3758    -1.9749    -2.3229 H       
  58 H58           -3.5404    -4.5193    -0.6425 H       
  59 H59           -4.8873    -3.7105    -1.4804 H       
  60 H60           -3.7478    -4.0972    -3.6587 H       
  61 H61           -1.7363    -5.6164    -1.9368 H       
  62 H62           -1.7697    -5.6063    -3.7170 H       
  63 H63           -1.3842    -3.1838    -3.7562 H       
  64 H64           -0.1276    -3.9508    -2.7513 H       
  65 H65           -4.4459    -6.0599    -4.9062 H       
  66 H66           -3.0080    -6.8610    -4.2278 H       
  67 H67           -4.7093    -8.5148    -4.9876 H       
  68 H68           -4.4373    -8.6120    -3.2308 H       
  69 H69           -7.5182    -6.8189    -2.3896 H       
  70 H70           -6.0803    -7.6200    -1.7112 H       
  71 H71           -5.8168    -5.1650    -1.6298 H       
  72 H72           -6.0889    -5.0679    -3.3866 H       
  73 H73           -6.6698    -9.6488    -3.0509 H       
  74 H74           -8.0863    -8.7538    -3.6514 H       
  75 H75           -6.9230    -9.4546    -4.8020 H       
  76 H76            3.5241    -1.1230    -1.8381 H       
  77 H77            5.2847    -4.1292     1.6512 H       
  78 H78            0.3467    -6.1759     2.8245 H       
  79 H79            0.0008    -8.4778     2.0244 H       
  80 H80            4.1715    -8.7912     1.1459 H       
  81 H81            3.4626   -10.2111    -0.2212 H       
  82 H82            3.7626   -10.8267     1.4217 H       
  83 H83            2.7390   -11.7524     0.2976 H       
  84 H84            3.1393    -0.1151    -4.0338 H       
  85 H85            1.4824    -0.5362    -4.5293 H       
  86 H86            2.1611     1.0538    -4.9531 H       
  87 H87            0.5574     1.1578    -3.0226 H       
  88 H88            2.1934     1.7140    -2.5954 H       
@<TRIPOS>BOND
   1    1    2 ar
   2    1    6 ar
   3    1   50 1
   4    2    3 ar
   5    2   47 1
   6    3    4 ar
   7    3    7 1
   8    4    5 ar
   9    4   51 1
  10    5    6 ar
  11    5   52 1
  12    6   53 1
  13    7    8 1
  14    7    9 1
  15    7   27 1
  16    8   25 2
  17    8   26 am
  18    9   10 1
  19    9   54 1
  20    9   55 1
  21   10   11 am
  22   10   12 2
  23   11   13 1
  24   11   17 1
  25   13   14 1
  26   13   56 1
  27   13   57 1
  28   14   15 1
  29   14   58 1
  30   14   59 1
  31   15   16 1
  32   15   18 1
  33   15   60 1
  34   16   17 1
  35   16   61 1
  36   16   62 1
  37   17   63 1
  38   17   64 1
  39   18   19 1
  40   18   23 1
  41   19   20 1
  42   19   65 1
  43   19   66 1
  44   20   21 1
  45   20   67 1
  46   20   68 1
  47   21   22 1
  48   21   24 1
  49   22   23 1
  50   22   69 1
  51   22   70 1
  52   23   71 1
  53   23   72 1
  54   24   73 1
  55   24   74 1
  56   24   75 1
  57   26   44 am
  58   26   28 1
  59   27   28 ar
  60   27   29 ar
  61   28   31 ar
  62   29   42 ar
  63   29   76 1
  64   30   31 ar
  65   30   32 1
  66   30   42 ar
  67   31   77 1
  68   33   34 ar
  69   33   35 ar
  70   33   44 1
  71   34   40 1
  72   34   38 ar
  73   35   36 ar
  74   35   78 1
  75   36   37 ar
  76   36   79 1
  77   37   38 ar
  78   37   39 1
  79   38   80 1
  80   39   41 1
  81   41   81 1
  82   41   82 1
  83   41   83 1
  84   42   43 1
  85   44   45 2
  86   44   46 2
  87   47   49 1
  88   48   49 1
  89   48   84 1
  90   48   85 1
  91   48   86 1
  92   49   87 1
  93   49   88 1

#	End of record

