#	Name: ASD06352011
#	Creating user name:	WinNT
#	Creation time:	15. 06. 2019 21:06

#	Modifying user name:	WinNT
#	Modification time:	15. 06. 2019 21:06

#	Program:	/corina/corina34_cracker 3.40 0067  02.08.2006

@<TRIPOS>MOLECULE
ASD06352011
 120  120    0    0    0
SMALL
NO_CHARGES


@<TRIPOS>ATOM
   1 C1            -2.1576    -0.5450     3.1640 C.2     
   2 O2            -1.4523    -1.3116     2.5428 O.2     
   3 N3            -0.5660    -0.7619     4.9873 N.3     
   4 C4            -1.6630     0.0567     4.4541 C.3     
   5 C5            -1.1591     1.4777     4.1940 C.3     
   6 C6            -0.6570     2.0886     5.5038 C.3     
   7 C7            -0.0148     1.4353     3.1793 C.3     
   8 C8            -4.8958     0.1012     0.8300 C.2     
   9 O9            -5.2042     1.1318     1.3901 O.2     
  10 N10           -3.3814    -0.2269     2.6976 N.am    
  11 C11           -3.8598    -0.8072     1.4404 C.3     
  12 C12           -4.4817    -2.1778     1.7153 C.3     
  13 C13           -7.8778     0.1371    -0.2932 C.2     
  14 O14           -7.9045    -0.7854     0.4936 O.2     
  15 N15           -5.4797    -0.2316    -0.3382 N.am    
  16 C16           -6.5648     0.5928    -0.8759 C.3     
  17 C17           -6.6062     0.4514    -2.3988 C.3     
  18 C18           -5.3463     1.0282    -2.9912 C.2     
  19 O19           -4.4663     1.4375    -2.2639 O.2     
  20 N20           -5.1974     1.0893    -4.3293 N.am    
  21 C21          -11.4151     1.1598    -0.6332 C.2     
  22 O22          -11.1687     2.0469    -1.4228 O.2     
  23 N23           -9.0224     0.7548    -0.6466 N.am    
  24 C24          -10.2988     0.3118    -0.0802 C.3     
  25 C25          -14.9293     1.7564     0.1776 C.2     
  26 O26          -15.0581     0.8467     0.9692 O.2     
  27 N27          -12.6872     0.9325    -0.2505 N.am    
  28 C28          -13.7723     1.7569    -0.7881 C.3     
  29 C29          -14.2293     1.1854    -2.1318 C.3     
  30 C30          -14.6366    -0.2784    -1.9514 C.3     
  31 C31          -15.2103    -0.8137    -3.2649 C.3     
  32 C32          -13.0826     1.2750    -3.1406 C.3     
  33 C33          -17.9365     1.6717     0.6752 C.2     
  34 O34          -17.5950     0.8434    -0.1422 O.2     
  35 N35          -15.8208     2.7670     0.1615 N.am    
  36 C36          -17.0414     2.8459     0.9773 C.3     
  37 C37          -17.7574     4.1612     0.6046 C.3     
  38 C38          -17.1940     4.4758    -0.8064 C.3     
  39 C39          -15.7303     3.9795    -0.6723 C.3     
  40 C40          -21.4144     0.7623     1.3389 C.2     
  41 O41          -21.6576     1.7602     1.9838 O.2     
  42 N42          -19.1165     1.5422     1.3134 N.am    
  43 C43          -19.9866     0.4007     1.0198 C.3     
  44 C44          -19.5613    -0.7971     1.8714 C.3     
  45 C45          -18.1250    -1.1892     1.5190 C.3     
  46 O46          -19.6338    -0.4475     3.2551 O.3     
  47 C47          -24.0840    -0.3496     2.6444 C.2     
  48 O48          -23.2217    -0.9752     3.2145 O.2     
  49 N49          -22.4210    -0.0233     0.9075 N.am    
  50 C50          -23.8009     0.2720     1.3011 C.3     
  51 C51          -24.7626    -0.3037     0.2598 C.3     
  52 C52          -24.5596     0.4161    -1.0750 C.3     
  53 C53          -25.5214    -0.1597    -2.1163 C.3     
  54 N54          -25.3270     0.5295    -3.3944 N.pl3   
  55 C55          -26.0854     0.1797    -4.4864 C.2     
  56 N56          -26.9775    -0.7652    -4.3846 N.2     
  57 N57          -25.9030     0.8265    -5.6858 N.pl3   
  58 O58          -25.2943    -0.2084     3.2076 O.3     
  59 H59           -0.8890    -1.6870     5.2279 H       
  60 H60            0.2027    -0.8055     4.3351 H       
  61 H61           -2.4783     0.0869     5.1770 H       
  62 H62           -1.9732     2.0851     3.7983 H       
  63 H63            0.1570     1.4812     5.8994 H       
  64 H64           -0.2981     3.1010     5.3184 H       
  65 H65           -1.4723     2.1188     6.2266 H       
  66 H66           -0.3725     1.0001     2.2462 H       
  67 H67            0.3442     2.4477     2.9940 H       
  68 H68            0.7993     0.8279     3.5750 H       
  69 H69           -3.9455     0.3862     3.1944 H       
  70 H70           -3.0234    -0.9195     0.7506 H       
  71 H71           -4.8376    -2.6095     0.7798 H       
  72 H72           -3.7324    -2.8348     2.1568 H       
  73 H73           -5.3182    -2.0655     2.4051 H       
  74 H74           -5.1813    -1.0170    -0.8231 H       
  75 H75           -6.3930     1.6364    -0.6124 H       
  76 H76           -6.6826    -0.6031    -2.6639 H       
  77 H77           -7.4705     0.9880    -2.7901 H       
  78 H78           -5.9012     0.7619    -4.9111 H       
  79 H79           -4.3865     1.4605    -4.7107 H       
  80 H80           -9.0011     1.4926    -1.2759 H       
  81 H81          -10.2693     0.4125     1.0048 H       
  82 H82          -10.4706    -0.7318    -0.3437 H       
  83 H83          -12.8842     0.2231     0.3810 H       
  84 H84          -13.4173     2.7777    -0.9293 H       
  85 H85          -15.0817     1.7571    -2.4988 H       
  86 H86          -13.7631    -0.8665    -1.6699 H       
  87 H87          -15.3915    -0.3516    -1.1686 H       
  88 H88          -16.0837    -0.2256    -3.5463 H       
  89 H89          -14.4553    -0.7404    -4.0477 H       
  90 H90          -15.5004    -1.8565    -3.1363 H       
  91 H91          -12.2302     0.7033    -2.7736 H       
  92 H92          -13.4081     0.8679    -4.0979 H       
  93 H93          -12.7924     2.3178    -3.2692 H       
  94 H94          -16.7804     2.8503     2.0356 H       
  95 H95          -18.8368     4.0149     0.5649 H       
  96 H96          -17.5001     4.9531     1.3080 H       
  97 H97          -17.7302     3.9185    -1.5745 H       
  98 H98          -17.2246     5.5463    -1.0096 H       
  99 H99          -15.1153     4.7331    -0.1804 H       
 100 H100         -15.3215     3.7359    -1.6529 H       
 101 H101         -19.3896     2.2047     1.9672 H       
 102 H102         -19.9043     0.1433    -0.0361 H       
 103 H103         -20.2264    -1.6378     1.6738 H       
 104 H104         -17.4519    -0.3708     1.7744 H       
 105 H105         -17.8434    -2.0800     2.0805 H       
 106 H106         -18.0565    -1.3961     0.4510 H       
 107 H107         -20.5175    -0.1876     3.5494 H       
 108 H108         -22.2318    -0.7842     0.3364 H       
 109 H109         -23.9376     1.3516     1.3643 H       
 110 H110         -24.5654    -1.3681     0.1323 H       
 111 H111         -25.7897    -0.1623     0.5963 H       
 112 H112         -24.7569     1.4805    -0.9475 H       
 113 H113         -23.5326     0.2747    -1.4115 H       
 114 H114         -25.3241    -1.2241    -2.2439 H       
 115 H115         -26.5484    -0.0183    -1.7798 H       
 116 H116         -24.6631     1.2327    -3.4702 H       
 117 H117         -27.5126    -1.0121    -5.1550 H       
 118 H118         -25.2392     1.5297    -5.7615 H       
 119 H119         -26.4382     0.5796    -6.4562 H       
 120 H120         -25.4285    -0.6250     4.0699 H       
@<TRIPOS>BOND
   1    1    2 2
   2    1    4 1
   3    1   10 am
   4    3    4 1
   5    3   59 1
   6    3   60 1
   7    4    5 1
   8    4   61 1
   9    5    6 1
  10    5    7 1
  11    5   62 1
  12    6   63 1
  13    6   64 1
  14    6   65 1
  15    7   66 1
  16    7   67 1
  17    7   68 1
  18    8    9 2
  19    8   11 1
  20    8   15 am
  21   10   11 1
  22   10   69 1
  23   11   12 1
  24   11   70 1
  25   12   71 1
  26   12   72 1
  27   12   73 1
  28   13   14 2
  29   13   16 1
  30   13   23 am
  31   15   16 1
  32   15   74 1
  33   16   17 1
  34   16   75 1
  35   17   18 1
  36   17   76 1
  37   17   77 1
  38   18   19 2
  39   18   20 am
  40   20   78 1
  41   20   79 1
  42   21   22 2
  43   21   24 1
  44   21   27 am
  45   23   24 1
  46   23   80 1
  47   24   81 1
  48   24   82 1
  49   25   26 2
  50   25   28 1
  51   25   35 am
  52   27   28 1
  53   27   83 1
  54   28   29 1
  55   28   84 1
  56   29   30 1
  57   29   32 1
  58   29   85 1
  59   30   31 1
  60   30   86 1
  61   30   87 1
  62   31   88 1
  63   31   89 1
  64   31   90 1
  65   32   91 1
  66   32   92 1
  67   32   93 1
  68   33   34 2
  69   33   42 am
  70   33   36 1
  71   35   36 1
  72   35   39 1
  73   36   37 1
  74   36   94 1
  75   37   38 1
  76   37   95 1
  77   37   96 1
  78   38   39 1
  79   38   97 1
  80   38   98 1
  81   39   99 1
  82   39  100 1
  83   40   41 2
  84   40   43 1
  85   40   49 am
  86   42   43 1
  87   42  101 1
  88   43   44 1
  89   43  102 1
  90   44   45 1
  91   44   46 1
  92   44  103 1
  93   45  104 1
  94   45  105 1
  95   45  106 1
  96   46  107 1
  97   47   48 2
  98   47   50 1
  99   47   58 1
 100   49   50 1
 101   49  108 1
 102   50   51 1
 103   50  109 1
 104   51   52 1
 105   51  110 1
 106   51  111 1
 107   52   53 1
 108   52  112 1
 109   52  113 1
 110   53   54 1
 111   53  114 1
 112   53  115 1
 113   54   55 1
 114   54  116 1
 115   55   56 2
 116   55   57 1
 117   56  117 1
 118   57  118 1
 119   57  119 1
 120   58  120 1

#	End of record

