#	Name: ASD03331704
#	Creating user name:	WinNT
#	Creation time:	15. 06. 2019 20:39

#	Modifying user name:	WinNT
#	Modification time:	15. 06. 2019 20:39

#	Program:	/corina/corina34_cracker 3.40 0067  02.08.2006

@<TRIPOS>MOLECULE
ASD03331704
  43   46    0    0    0
SMALL
NO_CHARGES


@<TRIPOS>ATOM
   1 C1            -0.2982     1.7335    -0.2596 C.ar    
   2 C2            -0.2190     0.3723    -0.1728 C.ar    
   3 C3             1.0129    -0.2563    -0.0554 C.ar    
   4 C4             2.1779     0.4795    -0.0242 C.ar    
   5 C5             2.1223     1.8663    -0.1114 C.ar    
   6 C6             0.8702     2.4998    -0.2305 C.ar    
   7 N7             3.0843     2.8522    -0.1077 N.pl3   
   8 C8             2.4870     4.0865    -0.2205 C.2     
   9 C9             1.1418     3.9347    -0.2983 C.2     
  10 C10            0.1210     5.0355    -0.4305 C.3     
  11 C11            0.2247     5.6548    -1.8005 C.ar    
  12 C12           -1.2818     4.4561    -0.2376 C.3     
  13 N13           -1.4282     3.9798     1.1401 N.pl3   
  14 O14           -1.0005     4.6481     2.0642 O.2     
  15 O15           -1.9776     2.9155     1.3614 O.2     
  16 C16           -0.4401     5.0750    -2.8641 C.ar    
  17 C17           -0.3383     5.6528    -4.1206 C.ar    
  18 C18            0.4320     6.7969    -4.2602 C.ar    
  19 C19            1.0683     7.3201    -3.1502 C.ar    
  20 N20            0.9445     6.7469    -1.9692 N.ar    
  21 C21            3.2025     5.3805    -0.2517 C.ar    
  22 C22            2.7801     6.4345     0.5596 C.ar    
  23 C23            4.3063     5.5508    -1.0883 C.ar    
  24 C24            4.9697     6.7603    -1.1123 C.ar    
  25 C25            4.5426     7.8030    -0.3094 C.ar    
  26 C26            3.4522     7.6389     0.5261 C.ar    
  27 H27           -1.2600     2.2154    -0.3549 H       
  28 H28           -1.1222    -0.2194    -0.1954 H       
  29 H29            1.0591    -1.3332     0.0126 H       
  30 H30            3.1312    -0.0196     0.0682 H       
  31 H31            4.0395     2.6992    -0.0358 H       
  32 H32            0.3072     5.7965     0.3273 H       
  33 H33           -2.0245     5.2289    -0.4357 H       
  34 H34           -1.4296     3.6248    -0.9270 H       
  35 H35           -1.0314     4.1830    -2.7187 H       
  36 H36           -0.8466     5.2214    -4.9703 H       
  37 H37            0.5339     7.2733    -5.2241 H       
  38 H38            1.6705     8.2110    -3.2507 H       
  39 H39            1.9288     6.3077     1.2119 H       
  40 H40            4.6408     4.7376    -1.7152 H       
  41 H41            5.8243     6.8934    -1.7591 H       
  42 H42            5.0656     8.7477    -0.3317 H       
  43 H43            3.1261     8.4555     1.1532 H       
@<TRIPOS>BOND
   1    1    2 ar
   2    1    6 ar
   3    1   27 1
   4    2    3 ar
   5    2   28 1
   6    3    4 ar
   7    3   29 1
   8    4    5 ar
   9    4   30 1
  10    5    7 1
  11    5    6 ar
  12    6    9 1
  13    7    8 1
  14    7   31 1
  15    8    9 2
  16    8   21 1
  17    9   10 1
  18   10   12 1
  19   10   11 1
  20   10   32 1
  21   11   16 ar
  22   11   20 ar
  23   12   13 1
  24   12   33 1
  25   12   34 1
  26   13   14 2
  27   13   15 2
  28   16   17 ar
  29   16   35 1
  30   17   18 ar
  31   17   36 1
  32   18   19 ar
  33   18   37 1
  34   19   20 ar
  35   19   38 1
  36   21   23 ar
  37   21   22 ar
  38   22   26 ar
  39   22   39 1
  40   23   24 ar
  41   23   40 1
  42   24   25 ar
  43   24   41 1
  44   25   26 ar
  45   25   42 1
  46   26   43 1

#	End of record

