#	Name: ASD01881031
#	Creating user name:	WinNT
#	Creation time:	15. 06. 2019 19:41

#	Modifying user name:	WinNT
#	Modification time:	15. 06. 2019 19:41

#	Program:	/corina/corina34_cracker 3.40 0067  02.08.2006

@<TRIPOS>MOLECULE
ASD01881031
  33   34    0    0    0
SMALL
NO_CHARGES


@<TRIPOS>ATOM
   1 O1            -0.0177     1.4528     0.0100 O.3     
   2 C2             0.0021    -0.0041     0.0020 C.3     
   3 C3             1.5020    -0.3567    -0.0142 C.3     
   4 N4             2.1700     0.9538    -0.0135 N.am    
   5 C5             1.2374     1.9159     0.0005 C.2     
   6 C6            -0.6652    -0.5565     1.2632 C.3     
   7 C7            -2.1566    -0.2156     1.2421 C.3     
   8 C8            -2.8238    -0.7680     2.5033 C.3     
   9 C9            -4.3152    -0.4272     2.4823 C.3     
  10 O10            1.5070     3.1008     0.0039 O.2     
  11 C11            3.5539     1.1619    -0.0256 C.ar    
  12 C12            4.0633     2.4537    -0.0236 C.ar    
  13 C13            5.4295     2.6558    -0.0356 C.ar    
  14 C14            6.2899     1.5733    -0.0501 C.ar    
  15 C15            5.7858     0.2857    -0.0527 C.ar    
  16 C16            4.4206     0.0769    -0.0340 C.ar    
  17 H17           -0.4904    -0.3880    -0.8914 H       
  18 H18            1.7715    -0.9243     0.8765 H       
  19 H19            1.7544    -0.9146    -0.9159 H       
  20 H20           -0.5402    -1.6388     1.2960 H       
  21 H21           -0.2029    -0.1105     2.1438 H       
  22 H22           -2.2815     0.8667     1.2093 H       
  23 H23           -2.6188    -0.6616     0.3615 H       
  24 H24           -2.6989    -1.8503     2.5361 H       
  25 H25           -2.3616    -0.3221     3.3840 H       
  26 H26           -4.7906    -0.8207     3.3808 H       
  27 H27           -4.4401     0.6551     2.4495 H       
  28 H28           -4.7774    -0.8731     1.6016 H       
  29 H29            3.3918     3.2996    -0.0129 H       
  30 H30            5.8263     3.6602    -0.0340 H       
  31 H31            7.3578     1.7339    -0.0598 H       
  32 H32            6.4603    -0.5577    -0.0647 H       
  33 H33            4.0275    -0.9290    -0.0360 H       
@<TRIPOS>BOND
   1    1    2 1
   2    1    5 1
   3    2    3 1
   4    2    6 1
   5    2   17 1
   6    3    4 1
   7    3   18 1
   8    3   19 1
   9    4    5 am
  10    4   11 1
  11    5   10 2
  12    6    7 1
  13    6   20 1
  14    6   21 1
  15    7    8 1
  16    7   22 1
  17    7   23 1
  18    8    9 1
  19    8   24 1
  20    8   25 1
  21    9   26 1
  22    9   27 1
  23    9   28 1
  24   11   12 ar
  25   11   16 ar
  26   12   13 ar
  27   12   29 1
  28   13   14 ar
  29   13   30 1
  30   14   15 ar
  31   14   31 1
  32   15   16 ar
  33   15   32 1
  34   16   33 1

#	End of record

