#	Name: ASD04590527
#	Creating user name:	WinNT
#	Creation time:	15. 06. 2019 20:51

#	Modifying user name:	WinNT
#	Modification time:	15. 06. 2019 20:51

#	Program:	/corina/corina34_cracker 3.40 0067  02.08.2006

@<TRIPOS>MOLECULE
ASD04590527
  60   64    0    0    0
SMALL
NO_CHARGES


@<TRIPOS>ATOM
   1 C1            -0.0341     1.4005     0.2230 C.ar    
   2 C2            -0.0120     0.0130     0.2353 C.ar    
   3 C3            -2.4030    -0.0352     0.1518 C.ar    
   4 C4            -2.4256     1.3707     0.1508 C.ar    
   5 C5            -1.2333     2.0803     0.1809 C.ar    
   6 N6            -3.6910    -0.4566     0.1196 N.2     
   7 C7            -4.4933     0.5803     0.0992 C.2     
   8 N8            -3.7580     1.7351     0.1173 N.pl3   
   9 C9            -5.9688     0.5127     0.0618 C.2     
  10 C10           -6.7470    -0.6685     0.0426 C.2     
  11 C11           -8.0527    -0.3021     0.0101 C.2     
  12 N12           -8.1042     1.0552     0.0086 N.pl3   
  13 N13           -6.7918     1.5425     0.0461 N.2     
  14 N14           -6.2569    -1.9818     0.0545 N.am    
  15 C15           -7.1145    -3.0213     0.0334 C.2     
  16 O16           -8.3116    -2.8203     0.0041 O.2     
  17 C17           -1.1749    -0.7028     0.2005 C.ar    
  18 C18           -6.5930    -4.4188     0.0461 C.2     
  19 C19           -7.5274    -5.5532     0.1606 C.ar    
  20 C20            1.2612     2.1698     0.2620 C.3     
  21 C21           -8.8863    -5.3234     0.4017 C.ar    
  22 O22           -5.3993    -4.6218    -0.0377 O.2     
  23 C23           -7.0611    -6.8648     0.0229 C.ar    
  24 C24           -7.9413    -7.9205     0.1313 C.ar    
  25 C25           -9.2834    -7.6850     0.3752 C.ar    
  26 C26           -9.7537    -6.3894     0.5074 C.ar    
  27 N27            1.7306     2.4082    -1.1094 N.3     
  28 C28            2.8569     3.3530    -1.1239 C.3     
  29 C29            3.3521     3.5263    -2.5622 C.3     
  30 O30            2.2674     3.9642    -3.3850 O.3     
  31 C31            1.1535     3.0673    -3.3946 C.3     
  32 C32            0.6361     2.8893    -1.9648 C.3     
  33 S33           -7.3564    -9.5735    -0.0418 S.o2    
  34 C34           -6.9043   -10.0723     1.6427 C.3     
  35 O35           -8.4914   -10.3017    -0.4898 O.2     
  36 O36           -6.1967    -9.4517    -0.8539 O.2     
  37 H37            0.9343    -0.5062     0.2726 H       
  38 H38           -1.2445     3.1602     0.1718 H       
  39 H39           -4.1072     2.6401     0.1083 H       
  40 H40           -8.9006    -0.9708    -0.0112 H       
  41 H41           -8.9106     1.5939    -0.0115 H       
  42 H42           -5.3006    -2.1424     0.0780 H       
  43 H43           -1.1461    -1.7823     0.2102 H       
  44 H44            1.1015     3.1248     0.7626 H       
  45 H45            2.0093     1.5944     0.8073 H       
  46 H46           -9.2546    -4.3134     0.5051 H       
  47 H47           -6.0144    -7.0500    -0.1682 H       
  48 H48           -9.9681    -8.5161     0.4583 H       
  49 H49          -10.8021    -6.2138     0.6980 H       
  50 H50            2.5290     4.3163    -0.7333 H       
  51 H51            3.6657     2.9647    -0.5048 H       
  52 H52            4.1496     4.2689    -2.5856 H       
  53 H53            3.7298     2.5739    -2.9344 H       
  54 H54            0.3609     3.4780    -4.0201 H       
  55 H55            1.4672     2.1016    -3.7910 H       
  56 H56           -0.1763     2.1626    -1.9595 H       
  57 H57            0.2726     3.8452    -1.5876 H       
  58 H58           -7.7824   -10.0166     2.2861 H       
  59 H59           -6.5275   -11.0951     1.6300 H       
  60 H60           -6.1315    -9.4051     2.0241 H       
@<TRIPOS>BOND
   1    1    2 ar
   2    1   20 1
   3    1    5 ar
   4    2   17 ar
   5    2   37 1
   6    3    4 ar
   7    3    6 1
   8    3   17 ar
   9    4    5 ar
  10    4    8 1
  11    5   38 1
  12    6    7 2
  13    7    8 1
  14    7    9 1
  15    8   39 1
  16    9   10 1
  17    9   13 2
  18   10   11 2
  19   10   14 1
  20   11   12 1
  21   11   40 1
  22   12   13 1
  23   12   41 1
  24   14   15 am
  25   14   42 1
  26   15   16 2
  27   15   18 1
  28   17   43 1
  29   18   19 1
  30   18   22 2
  31   19   21 ar
  32   19   23 ar
  33   20   27 1
  34   20   44 1
  35   20   45 1
  36   21   26 ar
  37   21   46 1
  38   23   24 ar
  39   23   47 1
  40   24   25 ar
  41   24   33 1
  42   25   26 ar
  43   25   48 1
  44   26   49 1
  45   27   28 1
  46   27   32 1
  47   28   29 1
  48   28   50 1
  49   28   51 1
  50   29   30 1
  51   29   52 1
  52   29   53 1
  53   30   31 1
  54   31   32 1
  55   31   54 1
  56   31   55 1
  57   32   56 1
  58   32   57 1
  59   33   34 1
  60   33   35 2
  61   33   36 2
  62   34   58 1
  63   34   59 1
  64   34   60 1

#	End of record

