#	Name: ASD01917066
#	Creating user name:	WinNT
#	Creation time:	15. 06. 2019 20:08

#	Modifying user name:	WinNT
#	Modification time:	15. 06. 2019 20:08

#	Program:	/corina/corina34_cracker 3.40 0067  02.08.2006

@<TRIPOS>MOLECULE
ASD01917066
  36   38    0    0    0
SMALL
NO_CHARGES


@<TRIPOS>ATOM
   1 C1            -0.0180     1.4758     0.0102 C.ar    
   2 C2             0.0021    -0.0041     0.0020 C.2     
   3 N3             1.0773    -0.7629    -0.0119 N.2     
   4 C4             0.7201    -2.0513    -0.0151 C.2     
   5 N5            -0.5935    -2.1308    -0.0032 N.2     
   6 N6            -1.0819    -0.8142     0.0135 N.pl3   
   7 C7            -2.4870    -0.3998     0.0307 C.3     
   8 C8            -2.9553    -0.2712     1.4573 C.2     
   9 O9            -4.2187     0.0999     1.7181 O.3     
  10 O10           -2.1936    -0.5020     2.3663 O.2     
  11 C11           -4.6003     0.2031     3.1152 C.3     
  12 C12            1.6537    -3.2048    -0.0301 C.ar    
  13 C13            3.0303    -2.9895    -0.0418 C.ar    
  14 C14            1.1562    -4.5063    -0.0267 C.ar    
  15 C15            2.0277    -5.5760    -0.0407 C.ar    
  16 C16            3.8947    -4.0648    -0.0557 C.ar    
  17 C17            3.3957    -5.3573    -0.0577 C.ar    
  18 F18            4.2456    -6.4074    -0.0705 F       
  19 C19            1.1837     2.1833     0.0025 C.ar    
  20 C20            1.1500     3.5664     0.0102 C.ar    
  21 C21           -0.0872     4.1994     0.0254 C.ar    
  22 C22           -1.2419     3.4330     0.0324 C.ar    
  23 N23           -1.1798     2.1179     0.0192 N.ar    
  24 F24           -0.1634     5.5483     0.0339 F       
  25 H25           -2.5884     0.5615    -0.4731 H       
  26 H26           -3.0921    -1.1457    -0.4846 H       
  27 H27           -4.4738    -0.7655     3.5989 H       
  28 H28           -3.9700     0.9417     3.6104 H       
  29 H29           -5.6438     0.5105     3.1850 H       
  30 H30            3.4201    -1.9823    -0.0403 H       
  31 H31            0.0900    -4.6777    -0.0128 H       
  32 H32            1.6429    -6.5851    -0.0382 H       
  33 H33            4.9618    -3.8988    -0.0652 H       
  34 H34            2.1277     1.6587    -0.0090 H       
  35 H35            2.0644     4.1411     0.0049 H       
  36 H36           -2.2053     3.9209     0.0445 H       
@<TRIPOS>BOND
   1    1    2 1
   2    1   19 ar
   3    1   23 ar
   4    2    3 2
   5    2    6 1
   6    3    4 1
   7    4    5 2
   8    4   12 1
   9    5    6 1
  10    6    7 1
  11    7    8 1
  12    7   25 1
  13    7   26 1
  14    8    9 1
  15    8   10 2
  16    9   11 1
  17   11   27 1
  18   11   28 1
  19   11   29 1
  20   12   13 ar
  21   12   14 ar
  22   13   16 ar
  23   13   30 1
  24   14   15 ar
  25   14   31 1
  26   15   17 ar
  27   15   32 1
  28   16   17 ar
  29   16   33 1
  30   17   18 1
  31   19   20 ar
  32   19   34 1
  33   20   21 ar
  34   20   35 1
  35   21   22 ar
  36   21   24 1
  37   22   23 ar
  38   22   36 1

#	End of record

