#	Name: ASD05430064
#	Creating user name:	WinNT
#	Creation time:	15. 06. 2019 20:59

#	Modifying user name:	WinNT
#	Modification time:	15. 06. 2019 20:59

#	Program:	/corina/corina34_cracker 3.40 0067  02.08.2006

@<TRIPOS>MOLECULE
ASD05430064
  68   73    0    0    0
SMALL
NO_CHARGES


@<TRIPOS>ATOM
   1 C1             0.0395     2.4696    -1.5628 C.ar    
   2 C2            -0.0988     1.0835    -1.6235 C.ar    
   3 C3             1.0042     0.2628    -1.4270 C.ar    
   4 C4             2.2408     0.8145    -1.1710 C.ar    
   5 C5             2.3872     2.2042    -1.1085 C.ar    
   6 C6             1.2766     3.0302    -1.3064 C.ar    
   7 O7             4.6075     0.6557    -0.2442 O.3     
   8 C8             4.7449     2.0016    -0.4966 C.2     
   9 C9             3.7068     2.7954    -0.8347 C.2     
  10 C10            5.3225     0.1633     0.8968 C.3     
  11 C11            6.8352     0.3316     0.6885 C.3     
  12 N12            7.0939     1.7095     0.2783 N.pl3   
  13 C13            6.1355     2.5032    -0.3641 C.2     
  14 C14            8.2814     2.5440     0.4365 C.3     
  15 O15            8.0538     3.6242    -0.4939 O.3     
  16 N16            6.6612     3.6000    -0.7810 N.2     
  17 C17            8.3790     3.0680     1.8461 C.ar    
  18 C18            9.5430     1.7644     0.0604 C.3     
  19 C19            7.9683     2.2810     2.9054 C.ar    
  20 N20           -1.3548     0.5166    -1.8833 N.pl3   
  21 C21           -1.6383    -0.4405    -2.8228 C.2     
  22 C22           -2.9577    -0.6956    -2.7341 C.2     
  23 N23           -3.4704     0.0816    -1.7687 N.2     
  24 C24           -2.5190     0.8080    -1.2476 C.2     
  25 C25           -3.7254    -1.6831    -3.5745 C.3     
  26 C26           -0.8271     4.6806    -1.6845 C.3     
  27 O27           -1.0415     3.2698    -1.7612 O.3     
  28 O28           10.6959     2.5630     0.3343 O.3     
  29 C29            8.8844     4.3331     2.0790 C.ar    
  30 C30            8.9750     4.8155     3.3738 C.ar    
  31 C31            8.5587     4.0303     4.4351 C.ar    
  32 C32            8.0571     2.7616     4.2010 C.ar    
  33 F33            9.4699     6.0519     3.6013 F       
  34 F34            7.6505     1.9942     5.2358 F       
  35 C35            4.8985     0.9605     2.1326 C.3     
  36 O36            5.6723     0.5187     3.2631 O.3     
  37 P37            5.7195    -1.0674     3.6139 P.3     
  38 O38            5.7839    -1.8325     2.1816 O.3     
  39 C39            5.0073    -1.3225     1.0821 C.3     
  40 C40            7.2046    -1.4501     4.5993 C.3     
  41 O41            4.4988    -1.4642     4.3507 O.2     
  42 H42            0.8925    -0.8103    -1.4746 H       
  43 H43            3.0968     0.1739    -1.0182 H       
  44 H44            1.3852     4.1037    -1.2594 H       
  45 H45            3.8446     3.8643    -0.9043 H       
  46 H46            7.3597     0.1216     1.6207 H       
  47 H47            7.1772    -0.3528    -0.0879 H       
  48 H48            9.5902     0.8456     0.6450 H       
  49 H49            9.5151     1.5185    -1.0012 H       
  50 H50            7.5777     1.2908     2.7226 H       
  51 H51           -0.9379    -0.9015    -3.5035 H       
  52 H52           -2.6392     1.5260    -0.4498 H       
  53 H53           -3.7217    -2.6570    -3.0851 H       
  54 H54           -4.7531    -1.3392    -3.6915 H       
  55 H55           -3.2567    -1.7675    -4.5550 H       
  56 H56           -0.4503     4.9375    -0.6946 H       
  57 H57           -0.0993     4.9790    -2.4391 H       
  58 H58           -1.7682     5.2013    -1.8615 H       
  59 H59           11.5338     2.1309     0.1194 H       
  60 H60            9.2091     4.9456     1.2508 H       
  61 H61            8.6293     4.4056     5.4453 H       
  62 H62            5.0768     2.0220     1.9608 H       
  63 H63            3.8391     0.7941     2.3282 H       
  64 H64            3.9459    -1.4463     1.2968 H       
  65 H65            5.2626    -1.8658     0.1722 H       
  66 H66            7.1814    -0.8799     5.5280 H       
  67 H67            7.2244    -2.5157     4.8277 H       
  68 H68            8.0961    -1.1836     4.0315 H       
@<TRIPOS>BOND
   1    1    2 ar
   2    1    6 ar
   3    1   27 1
   4    2    3 ar
   5    2   20 1
   6    3    4 ar
   7    3   42 1
   8    4    5 ar
   9    4   43 1
  10    5    6 ar
  11    5    9 1
  12    6   44 1
  13    7    8 1
  14    7   10 1
  15    8    9 2
  16    8   13 1
  17    9   45 1
  18   10   11 1
  19   10   35 1
  20   10   39 1
  21   11   12 1
  22   11   46 1
  23   11   47 1
  24   12   13 1
  25   12   14 1
  26   13   16 2
  27   14   15 1
  28   14   17 1
  29   14   18 1
  30   15   16 1
  31   17   19 ar
  32   17   29 ar
  33   18   28 1
  34   18   48 1
  35   18   49 1
  36   19   32 ar
  37   19   50 1
  38   20   21 1
  39   20   24 1
  40   21   22 2
  41   21   51 1
  42   22   23 1
  43   22   25 1
  44   23   24 2
  45   24   52 1
  46   25   53 1
  47   25   54 1
  48   25   55 1
  49   26   27 1
  50   26   56 1
  51   26   57 1
  52   26   58 1
  53   28   59 1
  54   29   30 ar
  55   29   60 1
  56   30   31 ar
  57   30   33 1
  58   31   32 ar
  59   31   61 1
  60   32   34 1
  61   35   36 1
  62   35   62 1
  63   35   63 1
  64   36   37 1
  65   37   38 1
  66   37   40 1
  67   37   41 2
  68   38   39 1
  69   39   64 1
  70   39   65 1
  71   40   66 1
  72   40   67 1
  73   40   68 1

#	End of record

