#	Name: ASD03731776
#	Creating user name:	WinNT
#	Creation time:	15. 06. 2019 20:46

#	Modifying user name:	WinNT
#	Modification time:	15. 06. 2019 20:46

#	Program:	/corina/corina34_cracker 3.40 0067  02.08.2006

@<TRIPOS>MOLECULE
ASD03731776
  36   37    0    0    0
SMALL
NO_CHARGES


@<TRIPOS>ATOM
   1 C1             0.3769     1.0948     1.9776 C.2     
   2 C2             0.2928    -0.2816     1.4513 C.ar    
   3 C3             1.3750    -0.8355     0.7619 C.ar    
   4 C4             1.2929    -2.1198     0.2729 C.ar    
   5 C5             0.1352    -2.8658     0.4642 C.ar    
   6 C6            -0.9435    -2.3183     1.1489 C.ar    
   7 C7            -0.8669    -1.0363     1.6460 C.ar    
   8 O8             1.3886     1.7483     1.8116 O.2     
   9 N9            -0.6699     1.6291     2.6373 N.am    
  10 S10           -0.5755     3.1734     3.2278 S.o2    
  11 O11           -1.8263     3.3801     3.8697 O.2     
  12 O12            0.6387     3.1928     3.9657 O.2     
  13 C13           -0.4388     4.2157     1.7495 C.3     
  14 C14            2.4591    -2.7178    -0.4710 C.3     
  15 O15            0.0581    -4.1313    -0.0192 O.3     
  16 C16           -1.1277    -4.7862     0.0932 C.ar    
  17 C17           -2.0817    -4.6717    -0.9076 C.ar    
  18 C18           -3.2862    -5.3382    -0.7922 C.ar    
  19 C19           -3.5415    -6.1202     0.3216 C.ar    
  20 C20           -2.5904    -6.2354     1.3212 C.ar    
  21 C21           -1.3829    -5.5742     1.2061 C.ar    
  22 F22           -4.7201    -6.7711     0.4333 F       
  23 H23            2.2745    -0.2565     0.6127 H       
  24 H24           -1.8413    -2.9006     1.2949 H       
  25 H25           -1.7037    -0.6132     2.1818 H       
  26 H26           -1.4785     1.1091     2.7662 H       
  27 H27           -1.3184     4.0731     1.1217 H       
  28 H28           -0.3709     5.2619     2.0476 H       
  29 H29            0.4551     3.9383     1.1908 H       
  30 H30            3.1194    -3.2229     0.2340 H       
  31 H31            2.0926    -3.4362    -1.2042 H       
  32 H32            3.0090    -1.9267    -0.9809 H       
  33 H33           -1.8830    -4.0616    -1.7763 H       
  34 H34           -4.0292    -5.2491    -1.5709 H       
  35 H35           -2.7911    -6.8454     2.1895 H       
  36 H36           -0.6396    -5.6675     1.9840 H       
@<TRIPOS>BOND
   1    1    2 1
   2    1    8 2
   3    1    9 am
   4    2    3 ar
   5    2    7 ar
   6    3    4 ar
   7    3   23 1
   8    4    5 ar
   9    4   14 1
  10    5    6 ar
  11    5   15 1
  12    6    7 ar
  13    6   24 1
  14    7   25 1
  15    9   10 am
  16    9   26 1
  17   10   11 2
  18   10   12 2
  19   10   13 1
  20   13   27 1
  21   13   28 1
  22   13   29 1
  23   14   30 1
  24   14   31 1
  25   14   32 1
  26   15   16 1
  27   16   17 ar
  28   16   21 ar
  29   17   18 ar
  30   17   33 1
  31   18   19 ar
  32   18   34 1
  33   19   20 ar
  34   19   22 1
  35   20   21 ar
  36   20   35 1
  37   21   36 1

#	End of record

