#	Name: ASD01916202
#	Creating user name:	WinNT
#	Creation time:	15. 06. 2019 20:06

#	Modifying user name:	WinNT
#	Modification time:	15. 06. 2019 20:06

#	Program:	/corina/corina34_cracker 3.40 0067  02.08.2006

@<TRIPOS>MOLECULE
ASD01916202
  43   45    0    0    0
SMALL
NO_CHARGES


@<TRIPOS>ATOM
   1 C1            -0.4111     1.7408     0.1047 C.ar    
   2 C2            -0.5441     0.3906     0.3732 C.ar    
   3 N3             0.4989    -0.3397     0.7064 N.ar    
   4 C4             1.7169     0.1815     0.7995 C.ar    
   5 C5             1.9305     1.5325     0.5448 C.ar    
   6 C6             0.8470     2.3315     0.1895 C.ar    
   7 C7            -1.9034    -0.2538     0.2834 C.3     
   8 O8             1.0129     3.6540    -0.0676 O.3     
   9 C9             2.2646     4.1724     0.0388 C.ar    
  10 C10            3.1956     3.9764    -0.9716 C.ar    
  11 N11            4.4111     4.4764    -0.8738 N.ar    
  12 C12            4.7920     5.1772     0.1762 C.ar    
  13 C13            3.9201     5.4155     1.2251 C.ar    
  14 C14            2.6288     4.9116     1.1592 C.ar    
  15 C15            2.8584    -0.6834     1.1783 C.2     
  16 N16            2.6583    -1.9928     1.4268 N.am    
  17 O17            3.9752    -0.2122     1.2651 O.2     
  18 C18            3.7453    -2.8283     1.6799 C.ar    
  19 C19            3.5436    -4.1965     1.8199 C.ar    
  20 C20            4.6306    -5.0155     2.0706 C.ar    
  21 C21            5.8887    -4.4341     2.1730 C.ar    
  22 C22            6.0150    -3.0648     2.0225 C.ar    
  23 N23            4.9598    -2.3115     1.7791 N.ar    
  24 C24           -1.8407    -1.4454    -0.6743 C.3     
  25 F25            6.9761    -5.1976     2.4174 F       
  26 F26            4.3199     6.1344     2.2969 F       
  27 C27            4.4540    -6.5037     2.2293 C.3     
  28 H28           -1.2730     2.3297    -0.1722 H       
  29 H29            2.9215     1.9549     0.6216 H       
  30 H30           -2.2085    -0.5977     1.2717 H       
  31 H31           -2.6262     0.4729    -0.0876 H       
  32 H32            2.9210     3.4076    -1.8477 H       
  33 H33            5.7971     5.5702     0.2188 H       
  34 H34            1.9253     5.0855     1.9601 H       
  35 H35            1.7581    -2.3539     1.4294 H       
  36 H36            2.5515    -4.6148     1.7346 H       
  37 H37            6.9902    -2.6074     2.1010 H       
  38 H38           -1.5356    -1.1015    -1.6626 H       
  39 H39           -1.1179    -2.1720    -0.3033 H       
  40 H40           -2.8238    -1.9114    -0.7392 H       
  41 H41            4.5508    -6.9868     1.2570 H       
  42 H42            5.2173    -6.8902     2.9046 H       
  43 H43            3.4662    -6.7105     2.6410 H       
@<TRIPOS>BOND
   1    1    2 ar
   2    1    6 ar
   3    1   28 1
   4    2    3 ar
   5    2    7 1
   6    3    4 ar
   7    4    5 ar
   8    4   15 1
   9    5    6 ar
  10    5   29 1
  11    6    8 1
  12    7   24 1
  13    7   30 1
  14    7   31 1
  15    8    9 1
  16    9   10 ar
  17    9   14 ar
  18   10   11 ar
  19   10   32 1
  20   11   12 ar
  21   12   13 ar
  22   12   33 1
  23   13   26 1
  24   13   14 ar
  25   14   34 1
  26   15   16 am
  27   15   17 2
  28   16   18 1
  29   16   35 1
  30   18   19 ar
  31   18   23 ar
  32   19   20 ar
  33   19   36 1
  34   20   21 ar
  35   20   27 1
  36   21   22 ar
  37   21   25 1
  38   22   23 ar
  39   22   37 1
  40   24   38 1
  41   24   39 1
  42   24   40 1
  43   27   41 1
  44   27   42 1
  45   27   43 1

#	End of record

