#	Name: ASD01814567
#	Creating user name:	WinNT
#	Creation time:	15. 06. 2019 19:32

#	Modifying user name:	WinNT
#	Modification time:	15. 06. 2019 19:32

#	Program:	/corina/corina34_cracker 3.40 0067  02.08.2006

@<TRIPOS>MOLECULE
ASD01814567
  70   74    0    0    0
SMALL
NO_CHARGES


@<TRIPOS>ATOM
   1 C1            -0.0168     1.3882     0.0097 C.ar    
   2 C2             0.0021    -0.0041     0.0020 C.ar    
   3 C3             1.1795    -0.6891    -0.0124 C.ar    
   4 C4             2.3944     0.0147    -0.0202 C.ar    
   5 C5             2.3745     1.4312    -0.0129 C.ar    
   6 C6             1.1424     2.1038     0.0024 C.ar    
   7 C7             3.6273    -0.6667    -0.0345 C.ar    
   8 C8             4.7911     0.0287    -0.0410 C.ar    
   9 C9             4.7929     1.4362    -0.0341 C.ar    
  10 C10            3.5923     2.1420    -0.0203 C.ar    
  11 O11            3.5945     3.4965    -0.0140 O.3     
  12 C12            6.0721     2.1670    -0.0414 C.2     
  13 O13            6.0777     3.3832    -0.0354 O.2     
  14 C14            3.6526    -2.1735    -0.0423 C.3     
  15 N15            3.4082    -2.6604    -1.4065 N.3     
  16 C16            3.6583    -4.1047    -1.5027 C.3     
  17 C17            3.2210    -4.6046    -2.8837 C.3     
  18 N18            3.8885    -3.7882    -3.9090 N.pl3   
  19 C19            3.7975    -2.3242    -3.8008 C.3     
  20 C20            4.2121    -1.9141    -2.3837 C.3     
  21 C21            4.5816    -4.3797    -4.9439 C.2     
  22 N22            7.2362     1.4879    -0.0548 N.am    
  23 C23            8.5082     2.2146    -0.0621 C.3     
  24 C24            9.5942     1.3354    -0.6854 C.3     
  25 C25           10.9227     2.0944    -0.6931 C.3     
  26 C26           11.3155     2.4494     0.7424 C.3     
  27 C27           10.2295     3.3285     1.3658 C.3     
  28 C28            8.9010     2.5696     1.3734 C.3     
  29 O29            9.2274     1.0039    -2.0261 O.3     
  30 C30            4.7344    -5.8350    -5.1456 C.2     
  31 N31            5.4372    -6.0572    -6.2026 N.2     
  32 C32            5.7983    -4.7540    -6.7738 C.3     
  33 N33            5.1966    -3.7426    -5.8955 N.2     
  34 C34            3.5844     4.1511    -1.2841 C.3     
  35 C35            7.3198    -4.5952    -6.8023 C.3     
  36 H36           -0.9635     1.9079     0.0170 H       
  37 H37           -0.9304    -0.5489     0.0080 H       
  38 H38            1.1785    -1.7691    -0.0175 H       
  39 H39            1.1136     3.1834     0.0085 H       
  40 H40            5.7301    -0.5049    -0.0514 H       
  41 H41            4.6274    -2.5222     0.2988 H       
  42 H42            2.8775    -2.5533     0.6234 H       
  43 H43            4.7218    -4.2997    -1.3653 H       
  44 H44            3.0902    -4.6244    -0.7311 H       
  45 H45            3.5086    -5.6492    -3.0029 H       
  46 H46            2.1401    -4.5058    -2.9835 H       
  47 H47            4.4662    -1.8612    -4.5264 H       
  48 H48            2.7720    -2.0062    -3.9887 H       
  49 H49            4.0457    -0.8451    -2.2510 H       
  50 H50            5.2680    -2.1396    -2.2340 H       
  51 H51            7.2317     0.5179    -0.0596 H       
  52 H52            8.4011     3.1287    -0.6461 H       
  53 H53            9.7014     0.4214    -0.1014 H       
  54 H54           11.6964     1.4681    -1.1371 H       
  55 H55           10.8156     3.0085    -1.2771 H       
  56 H56           11.4226     1.5353     1.3264 H       
  57 H57           12.2619     2.9901     0.7370 H       
  58 H58           10.5093     3.5815     2.3884 H       
  59 H59           10.1223     4.2426     0.7818 H       
  60 H60            8.1273     3.1959     1.8175 H       
  61 H61            9.0081     1.6555     1.9574 H       
  62 H62            9.8717     0.4467    -2.4839 H       
  63 H63            4.3194    -6.5981    -4.5037 H       
  64 H64            5.3921    -4.6605    -7.7809 H       
  65 H65            4.4690     3.8595    -1.8503 H       
  66 H66            2.6891     3.8623    -1.8347 H       
  67 H67            3.5874     5.2311    -1.1363 H       
  68 H68            7.7543    -5.3707    -7.4332 H       
  69 H69            7.5753    -3.6146    -7.2040 H       
  70 H70            7.7137    -4.6871    -5.7902 H       
@<TRIPOS>BOND
   1    1    2 ar
   2    1    6 ar
   3    1   36 1
   4    2    3 ar
   5    2   37 1
   6    3    4 ar
   7    3   38 1
   8    4    5 ar
   9    4    7 ar
  10    5    6 ar
  11    5   10 ar
  12    6   39 1
  13    7    8 ar
  14    7   14 1
  15    8    9 ar
  16    8   40 1
  17    9   10 ar
  18    9   12 1
  19   10   11 1
  20   11   34 1
  21   12   13 2
  22   12   22 am
  23   14   15 1
  24   14   41 1
  25   14   42 1
  26   15   16 1
  27   15   20 1
  28   16   17 1
  29   16   43 1
  30   16   44 1
  31   17   18 1
  32   17   45 1
  33   17   46 1
  34   18   19 1
  35   18   21 1
  36   19   20 1
  37   19   47 1
  38   19   48 1
  39   20   49 1
  40   20   50 1
  41   21   30 1
  42   21   33 2
  43   22   23 1
  44   22   51 1
  45   23   24 1
  46   23   28 1
  47   23   52 1
  48   24   25 1
  49   24   29 1
  50   24   53 1
  51   25   26 1
  52   25   54 1
  53   25   55 1
  54   26   27 1
  55   26   56 1
  56   26   57 1
  57   27   28 1
  58   27   58 1
  59   27   59 1
  60   28   60 1
  61   28   61 1
  62   29   62 1
  63   30   31 2
  64   30   63 1
  65   31   32 1
  66   32   33 1
  67   32   35 1
  68   32   64 1
  69   34   65 1
  70   34   66 1
  71   34   67 1
  72   35   68 1
  73   35   69 1
  74   35   70 1

#	End of record

