#	Name: ASD01810011
#	Creating user name:	WinNT
#	Creation time:	15. 06. 2019 19:23

#	Modifying user name:	WinNT
#	Modification time:	15. 06. 2019 19:23

#	Program:	/corina/corina34_cracker 3.40 0067  02.08.2006

@<TRIPOS>MOLECULE
ASD01810011
  43   47    0    0    0
SMALL
NO_CHARGES


@<TRIPOS>ATOM
   1 N1            -0.0163     1.3481     0.0095 N.am    
   2 C2             0.0021    -0.0041     0.0020 C.2     
   3 C3            -1.2675    -0.7370    -0.3574 C.3     
   4 C4            -2.5158    -0.1240     0.2726 C.3     
   5 C5            -2.5124     1.3729     0.1210 C.ar    
   6 C6            -1.2663     1.9809     0.0315 C.ar    
   7 C7            -3.6307     2.1611     0.0687 C.ar    
   8 C8            -3.5042     3.5483    -0.0479 C.ar    
   9 C9            -2.2648     4.1479    -0.0984 C.ar    
  10 C10           -1.1123     3.3585    -0.0515 C.ar    
  11 C11            0.9552     2.3032     0.0053 C.ar    
  12 C12            0.3354     3.5825    -0.0421 C.ar    
  13 C13            1.0863     4.7512    -0.0678 C.ar    
  14 C14            2.4795     4.6098    -0.0388 C.ar    
  15 C15            3.0802     3.3495     0.0134 C.ar    
  16 C16            2.3470     2.1926     0.0383 C.ar    
  17 C17           -4.7740     4.3576    -0.1219 C.3     
  18 N18           -4.5094     5.7649     0.1900 N.3     
  19 C19           -3.4214     6.2783    -0.6574 C.3     
  20 C20           -2.1096     5.6431    -0.1965 C.3     
  21 O21            1.0139    -0.6129     0.2770 O.2     
  22 C22            3.3294     5.8154    -0.0643 C.2     
  23 O23            4.6711     5.6946    -0.0368 O.3     
  24 O24            2.8195     6.9173    -0.1101 O.2     
  25 C25            5.4443     6.9233    -0.0645 C.3     
  26 H26           -1.3820    -0.7279    -1.4413 H       
  27 H27           -1.1802    -1.7717    -0.0259 H       
  28 H28           -3.4009    -0.5318    -0.2157 H       
  29 H29           -2.5435    -0.3769     1.3325 H       
  30 H30           -4.6111     1.7107     0.1173 H       
  31 H31            0.6177     5.7234    -0.1087 H       
  32 H32            4.1580     3.2853     0.0365 H       
  33 H33            2.8291     1.2270     0.0791 H       
  34 H34           -5.1885     4.2845    -1.1274 H       
  35 H35           -5.4950     3.9608     0.5928 H       
  36 H36           -5.3440     6.3219     0.0839 H       
  37 H37           -3.6110     6.0148    -1.6979 H       
  38 H38           -3.3591     7.3620    -0.5583 H       
  39 H39           -1.8379     6.0431     0.7803 H       
  40 H40           -1.3226     5.8786    -0.9130 H       
  41 H41            5.2185     7.4742    -0.9775 H       
  42 H42            5.1875     7.5337     0.8012 H       
  43 H43            6.5075     6.6842    -0.0379 H       
@<TRIPOS>BOND
   1    1    2 am
   2    1   11 1
   3    1    6 1
   4    2    3 1
   5    2   21 2
   6    3    4 1
   7    3   26 1
   8    3   27 1
   9    4    5 1
  10    4   28 1
  11    4   29 1
  12    5    6 ar
  13    5    7 ar
  14    6   10 ar
  15    7    8 ar
  16    7   30 1
  17    8    9 ar
  18    8   17 1
  19    9   10 ar
  20    9   20 1
  21   10   12 1
  22   11   12 ar
  23   11   16 ar
  24   12   13 ar
  25   13   14 ar
  26   13   31 1
  27   14   15 ar
  28   14   22 1
  29   15   16 ar
  30   15   32 1
  31   16   33 1
  32   17   18 1
  33   17   34 1
  34   17   35 1
  35   18   19 1
  36   18   36 1
  37   19   20 1
  38   19   37 1
  39   19   38 1
  40   20   39 1
  41   20   40 1
  42   22   23 1
  43   22   24 2
  44   23   25 1
  45   25   41 1
  46   25   42 1
  47   25   43 1

#	End of record

