#	Name: ASD04370020
#	Creating user name:	WinNT
#	Creation time:	15. 06. 2019 20:49

#	Modifying user name:	WinNT
#	Modification time:	15. 06. 2019 20:49

#	Program:	/corina/corina34_cracker 3.40 0067  02.08.2006

@<TRIPOS>MOLECULE
ASD04370020
  66   66    0    0    0
SMALL
NO_CHARGES


@<TRIPOS>ATOM
   1 C1             3.5016    -1.3306     1.9837 C.2     
   2 C2             2.5878    -0.1362     1.8869 C.3     
   3 C3             1.8156    -0.1904     0.5672 C.3     
   4 C4             0.8483     0.9927     0.4933 C.3     
   5 O5             3.4615    -2.1996     1.1295 O.co2   
   6 O6             4.2845    -1.4254     2.9135 O.co2   
   7 N7             0.0318     0.8824    -0.7229 N.4     
   8 C8            -0.6145    -0.4363    -0.7608 C.3     
   9 C9            -0.9963     1.9316    -0.7193 C.3     
  10 C10            0.8896     1.0414    -1.9047 C.3     
  11 N11            2.7575    -0.1218    -0.5529 N.am    
  12 C12            3.5678     0.9468    -0.6874 C.2     
  13 C13            4.4566     1.0707    -1.8981 C.3     
  14 C14            5.2677     2.3647    -1.8050 C.3     
  15 C15            6.1700     2.4905    -3.0341 C.3     
  16 C16            6.9811     3.7845    -2.9411 C.3     
  17 C17            7.8835     3.9104    -4.1702 C.3     
  18 C18            8.6945     5.2044    -4.0771 C.3     
  19 C19            9.5969     5.3302    -5.3063 C.3     
  20 C20           10.4079     6.6242    -5.2132 C.3     
  21 C21           11.3103     6.7500    -6.4423 C.3     
  22 O22            3.5817     1.8086     0.1658 O.2     
  23 C23           12.1092     8.0246    -6.3507 C.ar    
  24 C24           13.3446     8.0229    -5.7306 C.ar    
  25 C25           14.0774     9.1920    -5.6465 C.ar    
  26 C26           13.5749    10.3628    -6.1829 C.ar    
  27 C27           12.3398    10.3643    -6.8037 C.ar    
  28 C28           11.6090     9.1942    -6.8917 C.ar    
  29 H29            1.8849    -0.1480     2.7199 H       
  30 H30            3.1799     0.7782     1.9241 H       
  31 H31            1.2539    -1.1229     0.5129 H       
  32 H32            0.1989     0.9862     1.3687 H       
  33 H33            1.4143     1.9238     0.4676 H       
  34 H34           -1.2511    -0.5543     0.1161 H       
  35 H35           -1.2204    -0.5182    -1.6632 H       
  36 H36            0.1483    -1.2149    -0.7635 H       
  37 H37           -0.5168     2.9101    -0.6911 H       
  38 H38           -1.6022     1.8498    -1.6217 H       
  39 H39           -1.6329     1.8136     0.1576 H       
  40 H40            1.5329     0.1674    -2.0071 H       
  41 H41            0.2677     1.1410    -2.7944 H       
  42 H42            1.5048     1.9339    -1.7897 H       
  43 H43            2.7979    -0.8453    -1.1976 H       
  44 H44            5.1353     0.2187    -1.9393 H       
  45 H45            3.8431     1.0904    -2.7988 H       
  46 H46            4.5890     3.2167    -1.7638 H       
  47 H47            5.8812     2.3450    -0.9043 H       
  48 H48            6.8487     1.6386    -3.0754 H       
  49 H49            5.5565     2.5103    -3.9348 H       
  50 H50            6.3024     4.6365    -2.8998 H       
  51 H51            7.5946     3.7648    -2.0404 H       
  52 H52            8.5621     3.0584    -4.2115 H       
  53 H53            7.2699     3.9301    -5.0709 H       
  54 H54            8.0159     6.0563    -4.0359 H       
  55 H55            9.3081     5.1846    -3.1764 H       
  56 H56           10.2755     4.4782    -5.3475 H       
  57 H57            8.9833     5.3499    -6.2070 H       
  58 H58            9.7293     7.4762    -5.1720 H       
  59 H59           11.0215     6.6045    -4.3125 H       
  60 H60           11.9890     5.8981    -6.4836 H       
  61 H61           10.6968     6.7697    -7.3431 H       
  62 H62           13.7372     7.1082    -5.3116 H       
  63 H63           15.0423     9.1908    -5.1614 H       
  64 H64           14.1470    11.2763    -6.1165 H       
  65 H65           11.9470    11.2790    -7.2225 H       
  66 H66           10.6457     9.1946    -7.3800 H       
@<TRIPOS>BOND
   1    1    2 1
   2    1    5 ar
   3    1    6 ar
   4    2    3 1
   5    2   29 1
   6    2   30 1
   7    3    4 1
   8    3   11 1
   9    3   31 1
  10    4    7 1
  11    4   32 1
  12    4   33 1
  13    7    8 1
  14    7    9 1
  15    7   10 1
  16    8   34 1
  17    8   35 1
  18    8   36 1
  19    9   37 1
  20    9   38 1
  21    9   39 1
  22   10   40 1
  23   10   41 1
  24   10   42 1
  25   11   12 am
  26   11   43 1
  27   12   13 1
  28   12   22 2
  29   13   14 1
  30   13   44 1
  31   13   45 1
  32   14   15 1
  33   14   46 1
  34   14   47 1
  35   15   16 1
  36   15   48 1
  37   15   49 1
  38   16   17 1
  39   16   50 1
  40   16   51 1
  41   17   18 1
  42   17   52 1
  43   17   53 1
  44   18   19 1
  45   18   54 1
  46   18   55 1
  47   19   20 1
  48   19   56 1
  49   19   57 1
  50   20   21 1
  51   20   58 1
  52   20   59 1
  53   21   23 1
  54   21   60 1
  55   21   61 1
  56   23   24 ar
  57   23   28 ar
  58   24   25 ar
  59   24   62 1
  60   25   26 ar
  61   25   63 1
  62   26   27 ar
  63   26   64 1
  64   27   28 ar
  65   27   65 1
  66   28   66 1

#	End of record

