#	Name: ASD04882341
#	Creating user name:	WinNT
#	Creation time:	15. 06. 2019 20:54

#	Modifying user name:	WinNT
#	Modification time:	15. 06. 2019 20:54

#	Program:	/corina/corina34_cracker 3.40 0067  02.08.2006

@<TRIPOS>MOLECULE
ASD04882341
  76   81    0    0    0
SMALL
NO_CHARGES


@<TRIPOS>ATOM
   1 N1             0.1873     1.0479     0.3441 N.am    
   2 C2             0.1224    -0.3447     0.2054 C.ar    
   3 C3            -1.1187    -0.9853     0.1530 C.ar    
   4 C4            -1.1846    -2.3671     0.0154 C.ar    
   5 C5            -0.0278    -3.1097    -0.0693 C.ar    
   6 C6             1.2166    -2.4755    -0.0172 C.ar    
   7 C7             1.2856    -1.0857     0.1145 C.ar    
   8 N8            -2.2908    -0.2384     0.2392 N.3     
   9 C9            -3.1158    -0.4122    -0.9644 C.3     
  10 C10           -3.0493    -0.5865     1.4488 C.3     
  11 C11           -4.2862     0.3094     1.5476 C.3     
  12 N12           -5.1112     0.1356     0.3439 N.3     
  13 C13           -4.3527     0.4837    -0.8657 C.3     
  14 C14            2.4556    -3.2713    -0.1074 C.2     
  15 O15            3.3766    -2.8857    -0.8014 O.2     
  16 C16            1.2504     1.7240    -0.1347 C.2     
  17 C17            1.2753     3.1888    -0.0747 C.2     
  18 O18            2.1898     1.1186    -0.6169 O.2     
  19 N19            2.5665    -4.4257     0.5793 N.am    
  20 C20            2.2845     3.9932    -0.5213 C.2     
  21 C21            1.8890     5.3157    -0.2667 C.2     
  22 C22            0.6713     5.2614     0.3166 C.2     
  23 O23            0.3027     3.9784     0.4260 O.3     
  24 C24           -6.2869     0.8847     0.4304 C.ar    
  25 C25           -6.2239     2.2653     0.5684 C.ar    
  26 C26           -7.5220     0.2511     0.3730 C.ar    
  27 C27           -8.6823     0.9947     0.4588 C.ar    
  28 C28           -8.6160     2.3688     0.6014 C.ar    
  29 C29           -7.3885     3.0031     0.6537 C.ar    
  30 C30           -7.5952    -1.2460     0.2166 C.3     
  31 C31            3.8248    -5.1875     0.5808 C.3     
  32 C32            4.3821    -5.2367     2.0084 C.3     
  33 N33            3.3000    -5.5629     2.9360 N.pl3   
  34 C34            1.9818    -5.4439     2.6722 C.2     
  35 C35            1.4317    -4.9587     1.3563 C.3     
  36 C36            3.3906    -6.0341     4.2136 C.2     
  37 N37            2.1557    -6.1700     4.6572 N.2     
  38 N38            1.3262    -5.8166     3.7361 N.2     
  39 C39            4.6283    -6.3333     4.9542 C.2     
  40 O40            5.7091    -6.1627     4.4255 O.2     
  41 O41            4.5621    -6.7962     6.2185 O.3     
  42 C42            5.8216    -7.0694     6.8872 C.3     
  43 C43            5.5469    -7.5830     8.3020 C.3     
  44 H44           -0.5347     1.5259     0.7812 H       
  45 H45           -2.1450    -2.8593    -0.0247 H       
  46 H46           -0.0824    -4.1830    -0.1758 H       
  47 H47            2.2458    -0.5929     0.1550 H       
  48 H48           -2.5363    -0.1363    -1.8454 H       
  49 H49           -3.4267    -1.4538    -1.0449 H       
  50 H50           -3.3595    -1.6301     1.3958 H       
  51 H51           -2.4214    -0.4377     2.3273 H       
  52 H52           -4.8657     0.0335     2.4286 H       
  53 H53           -3.9753     1.3510     1.6281 H       
  54 H54           -4.0425     1.5273    -0.8126 H       
  55 H55           -4.9806     0.3349    -1.7441 H       
  56 H56            3.2082     3.6737    -0.9807 H       
  57 H57            2.4521     6.2088    -0.4943 H       
  58 H58            0.0893     6.1126     0.6379 H       
  59 H59           -5.2655     2.7614     0.6093 H       
  60 H60           -9.6427     0.5027     0.4142 H       
  61 H61           -9.5251     2.9481     0.6676 H       
  62 H62           -7.3403     4.0762     0.7651 H       
  63 H63           -7.6055    -1.7140     1.2009 H       
  64 H64           -8.5055    -1.5110    -0.3213 H       
  65 H65           -6.7276    -1.5957    -0.3430 H       
  66 H66            3.6369    -6.2016     0.2280 H       
  67 H67            4.5462    -4.7005    -0.0753 H       
  68 H68            5.1575    -6.0002     2.0705 H       
  69 H69            4.8041    -4.2658     2.2682 H       
  70 H70            0.6937    -4.1751     1.5280 H       
  71 H71            0.9759    -5.7880     0.8153 H       
  72 H72            6.3739    -7.8242     6.3275 H       
  73 H73            6.4105    -6.1538     6.9411 H       
  74 H74            4.9946    -6.8282     8.8618 H       
  75 H75            4.9580    -8.4987     8.2482 H       
  76 H76            6.4924    -7.7881     8.8041 H       
@<TRIPOS>BOND
   1    1    2 1
   2    1   16 am
   3    1   44 1
   4    2    3 ar
   5    2    7 ar
   6    3    4 ar
   7    3    8 1
   8    4    5 ar
   9    4   45 1
  10    5    6 ar
  11    5   46 1
  12    6    7 ar
  13    6   14 1
  14    7   47 1
  15    8    9 1
  16    8   10 1
  17    9   13 1
  18    9   48 1
  19    9   49 1
  20   10   11 1
  21   10   50 1
  22   10   51 1
  23   11   12 1
  24   11   52 1
  25   11   53 1
  26   12   13 1
  27   12   24 1
  28   13   54 1
  29   13   55 1
  30   14   15 2
  31   14   19 am
  32   16   18 2
  33   16   17 1
  34   17   20 2
  35   17   23 1
  36   19   31 1
  37   19   35 1
  38   20   21 1
  39   20   56 1
  40   21   22 2
  41   21   57 1
  42   22   23 1
  43   22   58 1
  44   24   25 ar
  45   24   26 ar
  46   25   29 ar
  47   25   59 1
  48   26   27 ar
  49   26   30 1
  50   27   28 ar
  51   27   60 1
  52   28   29 ar
  53   28   61 1
  54   29   62 1
  55   30   63 1
  56   30   64 1
  57   30   65 1
  58   31   32 1
  59   31   66 1
  60   31   67 1
  61   32   33 1
  62   32   68 1
  63   32   69 1
  64   33   34 1
  65   33   36 1
  66   34   35 1
  67   34   38 2
  68   35   70 1
  69   35   71 1
  70   36   37 2
  71   36   39 1
  72   37   38 1
  73   39   40 2
  74   39   41 1
  75   41   42 1
  76   42   43 1
  77   42   72 1
  78   42   73 1
  79   43   74 1
  80   43   75 1
  81   43   76 1

#	End of record

