#	Name: ASD02690006
#	Creating user name:	WinNT
#	Creation time:	15. 06. 2019 20:26

#	Modifying user name:	WinNT
#	Modification time:	15. 06. 2019 20:26

#	Program:	/corina/corina34_cracker 3.40 0067  02.08.2006

@<TRIPOS>MOLECULE
ASD02690006
  72   74    0    0    0
SMALL
NO_CHARGES


@<TRIPOS>ATOM
   1 C1             0.8067    -0.2980     1.3323 C.3     
   2 N2            -0.0285     0.0655     0.1805 N.3     
   3 C3            -0.0491     1.5197    -0.0226 C.3     
   4 C4             1.3684     2.0149    -0.3184 C.3     
   5 C5             2.2839     1.6577     0.8558 C.3     
   6 C6             2.2498     0.1430     1.0770 C.3     
   7 C7             5.9430     2.7788     1.3549 C.ar    
   8 C8             4.6338     2.3778     1.6396 C.ar    
   9 C9             3.6938     2.0896     0.5446 C.2     
  10 C10            6.8179     3.0465     2.3865 C.ar    
  11 C11            6.4034     2.9193     3.7009 C.ar    
  12 C12            5.1094     2.5229     3.9908 C.ar    
  13 C13            4.2226     2.2515     2.9704 C.ar    
  14 C14           -1.3904    -0.4646     0.3297 C.3     
  15 C15           -2.2575     0.0176    -0.8375 C.3     
  16 N16           -3.5758    -0.6243    -0.7441 N.am    
  17 C17           -3.6431    -2.0889    -0.6477 C.3     
  18 C18           -2.7605    -2.5475     0.5174 C.3     
  19 C19           -1.3461    -1.9943     0.3291 C.3     
  20 C20           -4.7019     0.1162    -0.7463 C.2     
  21 C21           -6.0206    -0.5461    -0.7757 C.ar    
  22 O22           -4.6314     1.3298    -0.7241 O.2     
  23 C23           -7.0709    -0.0506     0.0015 C.ar    
  24 C24           -8.2997    -0.6713    -0.0287 C.ar    
  25 C25           -8.4960    -1.7896    -0.8305 C.ar    
  26 C26           -7.4538    -2.2856    -1.6051 C.ar    
  27 C27           -6.2238    -1.6668    -1.5852 C.ar    
  28 O28           -9.7082    -2.3991    -0.8568 O.3     
  29 C29           -9.8408    -3.5433    -1.7026 C.3     
  30 O30           -0.8167    -2.4548    -0.9158 O.3     
  31 O31            4.0537     2.1996    -0.6081 O.2     
  32 C32            7.3661     3.2139     4.8222 C.3     
  33 F33            7.2777     4.5662     5.1695 F       
  34 F34            7.0445     2.4254     5.9322 F       
  35 F35            8.6698     2.9235     4.4059 F       
  36 H36            0.4283     0.1977     2.2262 H       
  37 H37            0.7771    -1.3781     1.4760 H       
  38 H38           -0.7005     1.7598    -0.8630 H       
  39 H39           -0.4236     2.0069     0.8777 H       
  40 H40            1.7382     1.5385    -1.2263 H       
  41 H41            1.3552     3.0964    -0.4537 H       
  42 H42            1.9368     2.1652     1.7558 H       
  43 H43            2.8664    -0.1130     1.9386 H       
  44 H44            2.6336    -0.3629     0.1910 H       
  45 H45            6.2691     2.8743     0.3298 H       
  46 H46            7.8293     3.3560     2.1682 H       
  47 H47            4.7936     2.4256     5.0190 H       
  48 H48            3.2132     1.9423     3.1982 H       
  49 H49           -1.8168    -0.1129     1.2692 H       
  50 H50           -2.3735     1.1001    -0.7838 H       
  51 H51           -1.7845    -0.2548    -1.7810 H       
  52 H52           -4.6734    -2.3963    -0.4687 H       
  53 H53           -3.2831    -2.5331    -1.5757 H       
  54 H54           -3.1743    -2.1766     1.4552 H       
  55 H55           -2.7252    -3.6366     0.5403 H       
  56 H56           -0.7097    -2.3395     1.1440 H       
  57 H57           -6.9190     0.8179     0.6252 H       
  58 H58           -9.1119    -0.2889     0.5716 H       
  59 H59           -7.6103    -3.1548    -2.2267 H       
  60 H60           -5.4146    -2.0526    -2.1875 H       
  61 H61           -9.6337    -3.2586    -2.7341 H       
  62 H62           -9.1338    -4.3111    -1.3885 H       
  63 H63          -10.8562    -3.9330    -1.6301 H       
  64 H64           -0.7585    -3.4174    -0.9865 H       
  65 C65           14.9692    13.6775    10.9461 C.1     
  66 C66           14.9851    12.5037    10.9396 C.1     
  67 O67           14.9508    15.0324    10.9535 O.3     
  68 O68           15.0035    11.1488    10.9322 O.3     
  69 O69           16.2846    15.6481    10.9441 O.3     
  70 O70           13.6698    10.5331    10.9416 O.3     
  71 H71           16.2714    16.6150    10.9494 H       
  72 H72           13.6829     9.5662    10.9363 H       
@<TRIPOS>BOND
   1    1    2 1
   2    1    6 1
   3    1   36 1
   4    1   37 1
   5    2    3 1
   6    2   14 1
   7    3    4 1
   8    3   38 1
   9    3   39 1
  10    4    5 1
  11    4   40 1
  12    4   41 1
  13    5    6 1
  14    5    9 1
  15    5   42 1
  16    6   43 1
  17    6   44 1
  18    7    8 ar
  19    7   10 ar
  20    7   45 1
  21    8    9 1
  22    8   13 ar
  23    9   31 2
  24   10   11 ar
  25   10   46 1
  26   11   12 ar
  27   11   32 1
  28   12   13 ar
  29   12   47 1
  30   13   48 1
  31   14   15 1
  32   14   19 1
  33   14   49 1
  34   15   16 1
  35   15   50 1
  36   15   51 1
  37   16   17 1
  38   16   20 am
  39   17   18 1
  40   17   52 1
  41   17   53 1
  42   18   19 1
  43   18   54 1
  44   18   55 1
  45   19   30 1
  46   19   56 1
  47   20   21 1
  48   20   22 2
  49   21   23 ar
  50   21   27 ar
  51   23   24 ar
  52   23   57 1
  53   24   25 ar
  54   24   58 1
  55   25   26 ar
  56   25   28 1
  57   26   27 ar
  58   26   59 1
  59   27   60 1
  60   28   29 1
  61   29   61 1
  62   29   62 1
  63   29   63 1
  64   30   64 1
  65   32   33 1
  66   32   34 1
  67   32   35 1
  68   65   66 3
  69   65   67 1
  70   66   68 1
  71   67   69 1
  72   68   70 1
  73   69   71 1
  74   70   72 1

#	End of record

