#	Name: ASD07932009
#	Creating user name:	WinNT
#	Creation time:	15. 06. 2019 21:14

#	Modifying user name:	WinNT
#	Modification time:	15. 06. 2019 21:14

#	Program:	/corina/corina34_cracker 3.40 0067  02.08.2006

@<TRIPOS>MOLECULE
ASD07932009
  49   50    0    0    0
SMALL
NO_CHARGES


@<TRIPOS>ATOM
   1 N1            -1.6217    -1.4251    -2.2488 N.pl3   
   2 N2             3.6434    -1.8476     0.1663 N.pl3   
   3 C3             2.5465    -2.8000    -0.0358 C.3     
   4 C4             2.5665    -3.8395     1.0939 C.3     
   5 N5             5.2371    -3.3001     1.1048 N.am    
   6 C6             4.9360    -2.2937     0.2156 C.2     
   7 C7             1.2314    -2.0642    -0.0198 C.ar    
   8 C8             2.7229    -3.5048    -1.3823 C.3     
   9 C9             0.8442    -1.3649     1.1102 C.ar    
  10 C10            0.4159    -2.0844    -1.1346 C.ar    
  11 C11           -0.7961    -1.4060    -1.1207 C.ar    
  12 C12           -1.1864    -0.7086     0.0146 C.ar    
  13 F13            1.6460    -1.3423     2.1974 F       
  14 C14           -0.3651    -0.6866     1.1274 C.ar    
  15 F15           -0.7435    -0.0084     2.2329 F       
  16 C16            6.4003    -3.2191     1.9917 C.3     
  17 H17            6.9273    -2.2815     1.8151 H       
  18 H18            6.0695    -3.2602     3.0295 H       
  19 H19            7.0696    -4.0556     1.7904 H       
  20 N20            5.8680    -1.7737    -0.5680 N.2     
  21 O21            6.5020    -0.2655    -2.2240 O.3     
  22 C22            6.0943     0.7750    -3.1146 C.3     
  23 C23            5.5351     1.9478    -2.3067 C.3     
  24 C24            7.2980     1.2471    -3.9325 C.3     
  25 C25            5.0131     0.2442    -4.0581 C.3     
  26 C26            5.5521    -0.7955    -1.4253 C.2     
  27 O27            4.4079    -0.3841    -1.4846 O.2     
  28 S28            4.2136    -4.6149     1.1235 S.o2    
  29 O29            4.4553    -5.2385     2.3773 O.2     
  30 O30            4.4756    -5.2895    -0.0994 O.2     
  31 H31           -1.3483    -1.9122    -3.0418 H       
  32 H32           -2.4699    -0.9544    -2.2371 H       
  33 H33            3.4529    -0.9013     0.2610 H       
  34 H34            2.3735    -3.3494     2.0482 H       
  35 H35            1.8060    -4.5983     0.9091 H       
  36 H36            3.6732    -4.0387    -1.3911 H       
  37 H37            1.9073    -4.2124    -1.5317 H       
  38 H38            2.7140    -2.7656    -2.1833 H       
  39 H39            0.7212    -2.6267    -2.0173 H       
  40 H40           -2.1284    -0.1805     0.0274 H       
  41 H41            6.3053     2.3260    -1.6345 H       
  42 H42            5.2241     2.7415    -2.9860 H       
  43 H43            4.6775     1.6115    -1.7239 H       
  44 H44            7.6964     0.4115    -4.5081 H       
  45 H45            6.9870     2.0407    -4.6118 H       
  46 H46            8.0683     1.6252    -3.2604 H       
  47 H47            4.1555    -0.0921    -3.4754 H       
  48 H48            4.7021     1.0378    -4.7374 H       
  49 H49            5.4115    -0.5914    -4.6337 H       
@<TRIPOS>BOND
   1    1   11 1
   2    1   31 1
   3    1   32 1
   4    2    3 1
   5    2    6 1
   6    2   33 1
   7    3    4 1
   8    3    7 1
   9    3    8 1
  10    4   28 1
  11    4   34 1
  12    4   35 1
  13    5    6 1
  14    5   16 1
  15    5   28 am
  16    6   20 2
  17    7   10 ar
  18    7    9 ar
  19    8   36 1
  20    8   37 1
  21    8   38 1
  22    9   13 1
  23    9   14 ar
  24   10   11 ar
  25   10   39 1
  26   11   12 ar
  27   12   14 ar
  28   12   40 1
  29   14   15 1
  30   16   17 1
  31   16   18 1
  32   16   19 1
  33   20   26 1
  34   21   22 1
  35   21   26 1
  36   22   23 1
  37   22   24 1
  38   22   25 1
  39   23   41 1
  40   23   42 1
  41   23   43 1
  42   24   44 1
  43   24   45 1
  44   24   46 1
  45   25   47 1
  46   25   48 1
  47   25   49 1
  48   26   27 2
  49   28   29 2
  50   28   30 2

#	End of record

