#	Name: ASD01916658
#	Creating user name:	WinNT
#	Creation time:	15. 06. 2019 20:07

#	Modifying user name:	WinNT
#	Modification time:	15. 06. 2019 20:07

#	Program:	/corina/corina34_cracker 3.40 0067  02.08.2006

@<TRIPOS>MOLECULE
ASD01916658
  22   22    0    0    0
SMALL
NO_CHARGES


@<TRIPOS>ATOM
   1 C1            -0.0167     1.3815     0.0096 C.ar    
   2 C2             0.0021    -0.0041     0.0020 C.ar    
   3 C3             1.2044    -0.6798    -0.0127 C.ar    
   4 C4             2.4033     0.0343    -0.0203 C.ar    
   5 C5             2.3787     1.4296    -0.0131 C.ar    
   6 C6             1.1709     2.0955     0.0021 C.ar    
   7 C7             3.6544    -0.6621    -0.0351 C.1     
   8 C8             4.6801    -1.2332    -0.0472 C.1     
   9 C9             5.9662    -1.9491    -0.0624 C.3     
  10 C10            7.1134    -0.9368    -0.0682 C.3     
  11 C11            8.3994    -1.6527    -0.0834 C.1     
  12 C12            9.4252    -2.2237    -0.0956 C.1     
  13 F13           -1.1971     2.0387     0.0188 F       
  14 H14           -0.9263    -0.5558     0.0080 H       
  15 H15            1.2179    -1.7597    -0.0179 H       
  16 H16            3.3037     1.9870    -0.0190 H       
  17 H17            1.1508     3.1753     0.0082 H       
  18 H18            6.0419    -2.5790     0.8239 H       
  19 H19            6.0255    -2.5706    -0.9560 H       
  20 H20            7.0377    -0.3069    -0.9546 H       
  21 H21            7.0540    -0.3153     0.8253 H       
  22 H22           10.3425    -2.7344    -0.1064 H       
@<TRIPOS>BOND
   1    1    2 ar
   2    1    6 ar
   3    1   13 1
   4    2    3 ar
   5    2   14 1
   6    3    4 ar
   7    3   15 1
   8    4    5 ar
   9    4    7 1
  10    5    6 ar
  11    5   16 1
  12    6   17 1
  13    7    8 3
  14    8    9 1
  15    9   10 1
  16    9   18 1
  17    9   19 1
  18   10   11 1
  19   10   20 1
  20   10   21 1
  21   11   12 3
  22   12   22 1

#	End of record

