#	Name: ASD03090302
#	Creating user name:	WinNT
#	Creation time:	15. 06. 2019 20:28

#	Modifying user name:	WinNT
#	Modification time:	15. 06. 2019 20:28

#	Program:	/corina/corina34_cracker 3.40 0067  02.08.2006

@<TRIPOS>MOLECULE
ASD03090302
  54   57    0    0    0
SMALL
NO_CHARGES


@<TRIPOS>ATOM
   1 C1            -1.1850     2.0392    -1.4016 C.ar    
   2 C2            -0.9254     1.0971    -0.4082 C.ar    
   3 C3             0.3313     0.5499    -0.2769 C.ar    
   4 C4             1.3549     0.9383    -1.1428 C.ar    
   5 C5             1.0987     1.8823    -2.1374 C.ar    
   6 C6            -0.1659     2.4316    -2.2643 C.ar    
   7 C7             2.7053     0.3520    -1.0059 C.2     
   8 N8             6.1867     0.3024    -1.4947 N.pl3   
   9 C9             6.5274     1.3921    -2.3003 C.ar    
  10 C10            7.7628     2.0095    -2.1493 C.ar    
  11 C11            8.0994     3.0869    -2.9459 C.ar    
  12 C12            7.2090     3.5535    -3.8939 C.ar    
  13 C13            5.9730     2.9409    -4.0490 C.ar    
  14 C14            5.6340     1.8558    -3.2567 C.ar    
  15 N15            3.8262     0.8687    -1.4701 N.2     
  16 C16            4.8504     0.0706    -1.1623 C.2     
  17 N17            4.3998    -0.9676    -0.4971 N.2     
  18 N18            3.0100    -0.8060    -0.3776 N.pl3   
  19 C19            2.0746    -1.7161     0.2880 C.3     
  20 C20            2.0072    -1.3819     1.7559 C.2     
  21 N21            1.2050    -2.0930     2.5728 N.am    
  22 O22            5.0983     3.4014    -4.9816 O.3     
  23 O23            2.6748    -0.4730     2.2022 O.2     
  24 C24            1.1395    -1.7681     3.9998 C.3     
  25 O25           -0.3799     3.3580    -3.2392 O.3     
  26 C26           -1.7440     3.6567    -3.5536 C.3     
  27 C27           -2.5042     3.8331    -2.2327 C.3     
  28 N28           -2.4765     2.5602    -1.5031 N.3     
  29 C29           -3.0935     2.6998    -0.1773 C.3     
  30 C30            5.5165     4.5193    -5.7673 C.3     
  31 F31            6.6772     4.1850    -6.4732 F       
  32 F32            4.5035     4.8599    -6.6701 F       
  33 F33            5.7783     5.6074    -4.9279 F       
  34 H34           -1.7151     0.7943     0.2635 H       
  35 H35            0.5251    -0.1792     0.4959 H       
  36 H36            1.8881     2.1853    -2.8093 H       
  37 H37            6.8784    -0.2931    -1.1664 H       
  38 H38            8.4603     1.6473    -1.4085 H       
  39 H39            9.0602     3.5657    -2.8271 H       
  40 H40            7.4749     4.3962    -4.5149 H       
  41 H41            4.6728     1.3780    -3.3760 H       
  42 H42            1.0847    -1.6076    -0.1552 H       
  43 H43            2.4173    -2.7434     0.1646 H       
  44 H44            0.6711    -2.8199     2.2159 H       
  45 H45            0.7968    -0.7407     4.1232 H       
  46 H46            0.4435    -2.4452     4.4950 H       
  47 H47            2.1294    -1.8766     4.4430 H       
  48 H48           -1.7955     4.5775    -4.1346 H       
  49 H49           -2.1795     2.8356    -4.1230 H       
  50 H50           -2.0242     4.6080    -1.6350 H       
  51 H51           -3.5369     4.1139    -2.4395 H       
  52 H52           -4.1291     3.0206    -0.2904 H       
  53 H53           -3.0647     1.7406     0.3397 H       
  54 H54           -2.5446     3.4417     0.4026 H       
@<TRIPOS>BOND
   1    1    2 ar
   2    1    6 ar
   3    1   28 1
   4    2    3 ar
   5    2   34 1
   6    3    4 ar
   7    3   35 1
   8    4    5 ar
   9    4    7 1
  10    5    6 ar
  11    5   36 1
  12    6   25 1
  13    7   15 2
  14    7   18 1
  15    8    9 1
  16    8   16 1
  17    8   37 1
  18    9   10 ar
  19    9   14 ar
  20   10   11 ar
  21   10   38 1
  22   11   12 ar
  23   11   39 1
  24   12   13 ar
  25   12   40 1
  26   13   14 ar
  27   13   22 1
  28   14   41 1
  29   15   16 1
  30   16   17 2
  31   17   18 1
  32   18   19 1
  33   19   20 1
  34   19   42 1
  35   19   43 1
  36   20   21 am
  37   20   23 2
  38   21   24 1
  39   21   44 1
  40   22   30 1
  41   24   45 1
  42   24   46 1
  43   24   47 1
  44   25   26 1
  45   26   27 1
  46   26   48 1
  47   26   49 1
  48   27   28 1
  49   27   50 1
  50   27   51 1
  51   28   29 1
  52   29   52 1
  53   29   53 1
  54   29   54 1
  55   30   31 1
  56   30   32 1
  57   30   33 1

#	End of record

