#	Name: ASD00960115
#	Creating user name:	WinNT
#	Creation time:	15. 06. 2019 18:53

#	Modifying user name:	WinNT
#	Modification time:	15. 06. 2019 18:53

#	Program:	/corina/corina34_cracker 3.40 0067  02.08.2006

@<TRIPOS>MOLECULE
ASD00960115
  39   41    0    0    0
SMALL
NO_CHARGES


@<TRIPOS>ATOM
   1 C1            -0.0103     1.5201     0.0118 C.3     
   2 C2             0.0085    -0.0246     0.0126 C.3     
   3 O3            -1.0906    -0.4065     0.8681 O.3     
   4 C4            -1.0522     0.5215     1.9741 C.3     
   5 C5            -2.4124     0.5742     2.6727 C.3     
   6 C6            -0.2047    -0.5525    -1.3827 C.2     
   7 C7             0.7651    -0.7228    -2.3084 C.2     
   8 N8            -1.3988    -0.9354    -1.9005 N.pl3   
   9 C9            -1.2074    -1.3588    -3.1917 C.2     
  10 C10            0.1581    -1.2348    -3.4779 C.2     
  11 N11           -2.6993    -0.9688    -1.3759 N.2     
  12 C12           -3.6909    -1.3951    -2.1121 C.2     
  13 N13           -3.5171    -1.8076    -3.3640 N.2     
  14 C14           -2.3221    -1.8061    -3.9319 C.2     
  15 N15           -2.1673    -2.2396    -5.2344 N.pl3   
  16 C16           -0.7241     1.8876     1.3319 C.3     
  17 C17            0.8251    -1.5693    -4.7394 C.2     
  18 O18           -2.7296    -0.7173     3.1957 O.3     
  19 S19            1.5316    -3.1143    -4.9507 S.2     
  20 N20            0.8822    -0.6606    -5.7331 N.am    
  21 O21            1.3219     2.0371     0.0022 O.3     
  22 *22            1.4485     3.2841    -0.6435 Du      
  23 O23            0.1454     2.6427     2.1779 O.3     
  24 *24            0.0436     4.0384     2.0054 Du      
  25 N25           -0.0060     0.1382     2.9253 N.2     
  26 N26           -0.0577    -0.8559     3.4473 N.1     
  27 N27           -0.1095    -1.8500     3.9692 N.pl3   
  28 H28           -0.5705     1.8948    -0.8449 H       
  29 H29            0.9509    -0.3923     0.4185 H       
  30 H30           -2.3745     1.2969     3.4877 H       
  31 H31           -3.1773     0.8740     1.9564 H       
  32 H32            1.8151    -0.5064    -2.1781 H       
  33 H33           -4.6847    -1.4134    -1.6895 H       
  34 H34           -2.9186    -2.6290    -5.7085 H       
  35 H35           -1.3072    -2.1546    -5.6748 H       
  36 H36           -1.6393     2.4439     1.1292 H       
  37 H37           -3.5806    -0.7582     3.6531 H       
  38 H38            0.4819     0.2148    -5.6134 H       
  39 H39            1.3237    -0.8820    -6.5680 H       
@<TRIPOS>BOND
   1    1    2 1
   2    1   21 1
   3    1   16 1
   4    1   28 1
   5    2    3 1
   6    2    6 1
   7    2   29 1
   8    3    4 1
   9    4    5 1
  10    4   25 1
  11    4   16 1
  12    5   18 1
  13    5   30 1
  14    5   31 1
  15    6    7 2
  16    6    8 1
  17    7   10 1
  18    7   32 1
  19    8    9 1
  20    8   11 1
  21    9   10 2
  22    9   14 1
  23   10   17 1
  24   11   12 2
  25   12   13 1
  26   12   33 1
  27   13   14 2
  28   14   15 1
  29   15   34 1
  30   15   35 1
  31   16   23 1
  32   16   36 1
  33   17   19 2
  34   17   20 am
  35   18   37 1
  36   20   38 1
  37   20   39 1
  38   21   22 1
  39   23   24 1
  40   25   26 2
  41   26   27 2

#	End of record

