#	Name: ASD01209023
#	Creating user name:	WinNT
#	Creation time:	15. 06. 2019 19:10

#	Modifying user name:	WinNT
#	Modification time:	15. 06. 2019 19:10

#	Program:	/corina/corina34_cracker 3.40 0067  02.08.2006

@<TRIPOS>MOLECULE
ASD01209023
  61   65    0    0    0
SMALL
NO_CHARGES


@<TRIPOS>ATOM
   1 S1            -0.2454    -0.7285     0.3818 S.o2    
   2 C2            -2.1276    -0.8217    -6.3380 C.3     
   3 C3            -3.5912    -1.0248    -5.9412 C.3     
   4 C4            -3.9470    -0.0711    -4.7989 C.3     
   5 C5            -5.4233    -0.1616    -4.5104 C.2     
   6 O6            -5.8080    -0.6189    -3.4550 O.2     
   7 N7            -3.1914    -0.4419    -3.5999 N.pl3   
   8 C8            -2.3027     0.3667    -2.9370 C.ar    
   9 C9            -1.8094    -0.3802    -1.8501 C.ar    
  10 C10           -2.4652    -1.6823    -1.9151 C.2     
  11 N11           -3.2645    -1.6748    -2.9434 N.2     
  12 N12           -6.3162     0.2655    -5.4251 N.am    
  13 C13           -1.8524     1.6688    -3.1376 C.ar    
  14 C14           -0.9375     2.2155    -2.2840 C.ar    
  15 C15           -0.4434     1.4847    -1.2051 C.ar    
  16 C16           -0.8726     0.1931    -0.9828 C.ar    
  17 C17           -7.6743     0.2963    -5.1121 C.ar    
  18 C18           -1.3879    -0.3584     1.7413 C.3     
  19 C19           -1.0493    -0.9234     3.1223 C.3     
  20 C20           -0.8905     0.5735     2.8482 C.3     
  21 O21           -0.3741    -2.0847    -0.0225 O.2     
  22 O22            1.0310    -0.1570     0.6335 O.2     
  23 C23           -1.7249    -1.8797    -7.3699 C.3     
  24 C24           -0.2845    -1.6207    -7.8193 C.3     
  25 O25           -0.1840    -0.2993    -8.3540 O.3     
  26 C26           -0.5030     0.7340    -7.4198 C.3     
  27 C27           -1.9522     0.5696    -6.9544 C.3     
  28 C28           -8.0860     0.2268    -3.7843 C.ar    
  29 N29           -9.3727     0.2568    -3.4918 N.ar    
  30 C30          -10.2698     0.3526    -4.4583 C.ar    
  31 C31           -9.8643     0.4214    -5.7784 C.ar    
  32 N32           -8.5772     0.3975    -6.0784 N.ar    
  33 O33            0.4670     2.0484    -0.3669 O.3     
  34 C34            0.8695     3.3893    -0.6533 C.3     
  35 H35           -1.4944    -0.9134    -5.4556 H       
  36 H36           -4.2320    -0.8197    -6.7987 H       
  37 H37           -3.7396    -2.0541    -5.6147 H       
  38 H38           -3.6949     0.9497    -5.0861 H       
  39 H39           -2.3174    -2.5041    -1.2301 H       
  40 H40           -6.0139     0.5515    -6.3013 H       
  41 H41           -2.2269     2.2469    -3.9695 H       
  42 H42           -0.5927     3.2259    -2.4470 H       
  43 H43           -2.4410    -0.2972     1.4669 H       
  44 H44           -1.8797    -1.2336     3.7566 H       
  45 H45           -0.1400    -1.5175     3.2139 H       
  46 H46            0.1232     0.9642     2.7595 H       
  47 H47           -1.6165     1.2480     3.3022 H       
  48 H48           -1.7939    -2.8708    -6.9214 H       
  49 H49           -2.3911    -1.8212    -8.2306 H       
  50 H50            0.3859    -1.7193    -6.9655 H       
  51 H51           -0.0069    -2.3449    -8.5852 H       
  52 H52            0.1646     0.6662    -6.5609 H       
  53 H53           -0.3828     1.7061    -7.8980 H       
  54 H54           -2.6230     0.6776    -7.8068 H       
  55 H55           -2.1838     1.3302    -6.2088 H       
  56 H56           -7.3536     0.1482    -2.9945 H       
  57 H57          -11.3220     0.3769    -4.2161 H       
  58 H58          -10.6001     0.4989    -6.5652 H       
  59 H59            1.5965     3.7170     0.0897 H       
  60 H60            1.3203     3.4294    -1.6450 H       
  61 H61           -0.0012     4.0443    -0.6233 H       
@<TRIPOS>BOND
   1    1   21 2
   2    1   22 2
   3    1   16 1
   4    1   18 1
   5    2    3 1
   6    2   23 1
   7    2   27 1
   8    2   35 1
   9    3    4 1
  10    3   36 1
  11    3   37 1
  12    4    7 1
  13    4    5 1
  14    4   38 1
  15    5    6 2
  16    5   12 am
  17    7    8 1
  18    7   11 1
  19    8    9 ar
  20    8   13 ar
  21    9   10 1
  22    9   16 ar
  23   10   11 2
  24   10   39 1
  25   12   17 1
  26   12   40 1
  27   13   14 ar
  28   13   41 1
  29   14   15 ar
  30   14   42 1
  31   15   16 ar
  32   15   33 1
  33   17   28 ar
  34   17   32 ar
  35   18   19 1
  36   18   20 1
  37   18   43 1
  38   19   20 1
  39   19   44 1
  40   19   45 1
  41   20   46 1
  42   20   47 1
  43   23   24 1
  44   23   48 1
  45   23   49 1
  46   24   25 1
  47   24   50 1
  48   24   51 1
  49   25   26 1
  50   26   27 1
  51   26   52 1
  52   26   53 1
  53   27   54 1
  54   27   55 1
  55   28   29 ar
  56   28   56 1
  57   29   30 ar
  58   30   31 ar
  59   30   57 1
  60   31   32 ar
  61   31   58 1
  62   33   34 1
  63   34   59 1
  64   34   60 1
  65   34   61 1

#	End of record

