#	Name: ASD01350033
#	Creating user name:	WinNT
#	Creation time:	15. 06. 2019 19:16

#	Modifying user name:	WinNT
#	Modification time:	15. 06. 2019 19:16

#	Program:	/corina/corina34_cracker 3.40 0067  02.08.2006

@<TRIPOS>MOLECULE
ASD01350033
  33   34    0    0    0
SMALL
NO_CHARGES


@<TRIPOS>ATOM
   1 C1            -0.0167     1.3802     0.0096 C.ar    
   2 C2             0.0021    -0.0041     0.0020 C.ar    
   3 C3            -1.1870    -0.7112     0.0095 C.ar    
   4 C4            -2.3926    -0.0358     0.0246 C.ar    
   5 C5            -2.4114     1.3467     0.0318 C.ar    
   6 C6            -1.2244     2.0547     0.0305 C.ar    
   7 Cl7            1.4744     2.2691     0.0002 Cl      
   8 Cl8            1.5168    -0.8520    -0.0175 Cl      
   9 C9            -3.6876    -0.8065     0.0328 C.3     
  10 N10           -4.6424    -0.1501     0.9357 N.3     
  11 C11           -4.2674    -0.8445    -1.3826 C.3     
  12 C12           -5.5148    -1.7304    -1.3991 C.3     
  13 C13           -6.0859    -1.7678    -2.7932 C.ar    
  14 C14           -5.6679    -2.7373    -3.6850 C.ar    
  15 C15           -6.1919    -2.7720    -4.9649 C.ar    
  16 C16           -7.1350    -1.8351    -5.3515 C.ar    
  17 C17           -7.5523    -0.8653    -4.4575 C.ar    
  18 C18           -7.0319    -0.8356    -3.1775 C.ar    
  19 Cl19          -7.7932    -1.8769    -6.9574 Cl      
  20 Cl20          -5.6668    -3.9893    -6.0857 Cl      
  21 H21           -1.1730    -1.7911     0.0032 H       
  22 H22           -3.3540     1.8736     0.0432 H       
  23 H23           -1.2398     3.1346     0.0361 H       
  24 H24           -3.5026    -1.8241     0.3771 H       
  25 H25           -4.3112    -0.1697     1.8886 H       
  26 H26           -4.8305     0.7954     0.6377 H       
  27 H27           -4.5350     0.1656    -1.6928 H       
  28 H28           -3.5243    -1.2505    -2.0689 H       
  29 H29           -5.2472    -2.7404    -1.0889 H       
  30 H30           -6.2579    -1.3243    -0.7128 H       
  31 H31           -4.9319    -3.4676    -3.3828 H       
  32 H32           -8.2878    -0.1339    -4.7585 H       
  33 H33           -7.3582    -0.0785    -2.4797 H       
@<TRIPOS>BOND
   1    1    2 ar
   2    1    7 1
   3    1    6 ar
   4    2    3 ar
   5    2    8 1
   6    3    4 ar
   7    3   21 1
   8    4    5 ar
   9    4    9 1
  10    5    6 ar
  11    5   22 1
  12    6   23 1
  13    9   10 1
  14    9   11 1
  15    9   24 1
  16   10   25 1
  17   10   26 1
  18   11   12 1
  19   11   27 1
  20   11   28 1
  21   12   13 1
  22   12   29 1
  23   12   30 1
  24   13   14 ar
  25   13   18 ar
  26   14   15 ar
  27   14   31 1
  28   15   16 ar
  29   15   20 1
  30   16   17 ar
  31   16   19 1
  32   17   18 ar
  33   17   32 1
  34   18   33 1

#	End of record

