#	Name: ASD05060041
#	Creating user name:	WinNT
#	Creation time:	15. 06. 2019 20:56

#	Modifying user name:	WinNT
#	Modification time:	15. 06. 2019 20:56

#	Program:	/corina/corina34_cracker 3.40 0067  02.08.2006

@<TRIPOS>MOLECULE
ASD05060041
  25   26    0    0    0
SMALL
NO_CHARGES


@<TRIPOS>ATOM
   1 C1            -0.0147     1.3012     0.0001 C.2     
   2 N2             0.0027    -0.0038    -0.0055 N.2     
   3 C3             1.2745    -0.4354    -0.0128 C.2     
   4 C4             2.0902     0.6893    -0.0116 C.2     
   5 N5             1.2466     1.7717    -0.0034 N.pl3   
   6 C6             3.5612     0.7147    -0.0172 C.2     
   7 O7             4.1869    -0.3272    -0.0237 O.2     
   8 O8             4.2150     1.8937    -0.0152 O.3     
   9 C9             1.7228    -1.8442    -0.0200 C.2     
  10 N10            0.8149    -2.8402    -0.0200 N.am    
  11 O11            2.9101    -2.1041    -0.0259 O.2     
  12 C12            1.2332    -4.1639    -0.1355 C.ar    
  13 C13            0.3034    -5.1923    -0.0266 C.ar    
  14 C14            0.7324    -6.5024    -0.1433 C.ar    
  15 C15            2.0821    -6.7401    -0.3660 C.ar    
  16 C16            2.9499    -5.6705    -0.4636 C.ar    
  17 N17            2.5111    -4.4312    -0.3534 N.ar    
  18 H18           -0.9059     1.9112     0.0025 H       
  19 H19            1.5108     2.7050    -0.0006 H       
  20 H20            5.1814     1.8598    -0.0191 H       
  21 H21           -0.1298    -2.6354     0.0605 H       
  22 H22           -0.7394    -4.9713     0.1472 H       
  23 H23            0.0334    -7.3217    -0.0628 H       
  24 H24            2.4496    -7.7512    -0.4615 H       
  25 H25            4.0006    -5.8506    -0.6363 H       
@<TRIPOS>BOND
   1    1    2 2
   2    1    5 1
   3    1   18 1
   4    2    3 1
   5    3    4 2
   6    3    9 1
   7    4    5 1
   8    4    6 1
   9    5   19 1
  10    6    7 2
  11    6    8 1
  12    8   20 1
  13    9   10 am
  14    9   11 2
  15   10   12 1
  16   10   21 1
  17   12   13 ar
  18   12   17 ar
  19   13   14 ar
  20   13   22 1
  21   14   15 ar
  22   14   23 1
  23   15   16 ar
  24   15   24 1
  25   16   17 ar
  26   16   25 1

#	End of record

