#	Name: ASD03430673
#	Creating user name:	WinNT
#	Creation time:	15. 06. 2019 20:41

#	Modifying user name:	WinNT
#	Modification time:	15. 06. 2019 20:41

#	Program:	/corina/corina34_cracker 3.40 0067  02.08.2006

@<TRIPOS>MOLECULE
ASD03430673
  57   63    0    0    0
SMALL
NO_CHARGES


@<TRIPOS>ATOM
   1 C1             3.9680    -1.1800    -2.9702 C.ar    
   2 C2             3.1209    -2.0742    -2.3532 C.ar    
   3 C3             3.5296    -3.3720    -2.1299 C.ar    
   4 C4             4.8020    -3.7865    -2.5149 C.ar    
   5 C5             5.6477    -2.8801    -3.1429 C.ar    
   6 C6             5.2366    -1.5735    -3.3790 C.ar    
   7 O7             5.0170    -5.0903    -2.1788 O.3     
   8 C8             2.8533    -4.5694    -1.5190 C.3     
   9 C9             3.7506    -5.7378    -1.9499 C.3     
  10 C10            1.3871    -4.5641     0.2617 C.ar    
  11 C11            2.7461    -4.4665    -0.0265 C.ar    
  12 C12            1.4435    -4.7363    -2.0088 C.2     
  13 N13            0.6533    -4.7192    -0.9169 N.am    
  14 O14            1.0860    -4.8619    -3.1609 O.2     
  15 C15            3.6677    -4.3108     0.9857 C.ar    
  16 C16            3.2460    -4.2482     2.3036 C.ar    
  17 C17            1.8991    -4.3425     2.6000 C.ar    
  18 C18            0.9728    -4.4995     1.5895 C.ar    
  19 C19           -0.8053    -4.8490    -0.9609 C.3     
  20 C20            3.8165     0.2841    -3.3330 C.3     
  21 O21            5.8957    -0.5485    -3.9875 O.3     
  22 C22           -1.3906    -3.6845    -1.7176 C.ar    
  23 C23           -1.1744    -6.1351    -1.6542 C.ar    
  24 C24           -2.6612    -3.7773    -2.2541 C.ar    
  25 C25           -0.6591    -2.5216    -1.8703 C.ar    
  26 C26           -1.1960    -1.4535    -2.5644 C.ar    
  27 C27           -2.4642    -1.5485    -3.1062 C.ar    
  28 C28           -3.1981    -2.7092    -2.9482 C.ar    
  29 C29           -1.5912    -7.2249    -0.9129 C.ar    
  30 C30           -1.1017    -6.2233    -3.0318 C.ar    
  31 C31           -1.4403    -7.4031    -3.6677 C.ar    
  32 C32           -1.8512    -8.4948    -2.9260 C.ar    
  33 C33           -1.9297    -8.4047    -1.5488 C.ar    
  34 Cl34           5.3582    -4.1923     0.6092 Cl      
  35 C35            5.2803     0.6966    -3.6163 C.3     
  36 H36            2.1356    -1.7582    -2.0436 H       
  37 H37            6.6343    -3.1940    -3.4504 H       
  38 H38            3.3779    -6.1944    -2.8668 H       
  39 H39            3.8323    -6.4773    -1.1533 H       
  40 H40            3.9678    -4.1263     3.0977 H       
  41 H41            1.5703    -4.2934     3.6275 H       
  42 H42           -0.0777    -4.5722     1.8293 H       
  43 H43           -1.2001    -4.8575     0.0550 H       
  44 H44            3.1991     0.4029    -4.2234 H       
  45 H45            3.4065     0.8519    -2.4978 H       
  46 H46           -3.2343    -4.6845    -2.1313 H       
  47 H47            0.3317    -2.4474    -1.4471 H       
  48 H48           -0.6248    -0.5446    -2.6831 H       
  49 H49           -2.8838    -0.7138    -3.6481 H       
  50 H50           -4.1889    -2.7835    -3.3714 H       
  51 H51           -1.6519    -7.1548     0.1631 H       
  52 H52           -0.7807    -5.3704    -3.6113 H       
  53 H53           -1.3842    -7.4717    -4.7441 H       
  54 H54           -2.1161    -9.4164    -3.4228 H       
  55 H55           -2.2508    -9.2577    -0.9693 H       
  56 H56            5.3281     1.4111    -4.4382 H       
  57 H57            5.7466     1.1057    -2.7200 H       
@<TRIPOS>BOND
   1    1    2 ar
   2    1    6 ar
   3    1   20 1
   4    2    3 ar
   5    2   36 1
   6    3    4 ar
   7    3    8 1
   8    4    5 ar
   9    4    7 1
  10    5    6 ar
  11    5   37 1
  12    6   21 1
  13    7    9 1
  14    8    9 1
  15    8   11 1
  16    8   12 1
  17    9   38 1
  18    9   39 1
  19   10   11 ar
  20   10   13 1
  21   10   18 ar
  22   11   15 ar
  23   12   13 am
  24   12   14 2
  25   13   19 1
  26   15   16 ar
  27   15   34 1
  28   16   17 ar
  29   16   40 1
  30   17   18 ar
  31   17   41 1
  32   18   42 1
  33   19   22 1
  34   19   23 1
  35   19   43 1
  36   20   35 1
  37   20   44 1
  38   20   45 1
  39   21   35 1
  40   22   24 ar
  41   22   25 ar
  42   23   29 ar
  43   23   30 ar
  44   24   28 ar
  45   24   46 1
  46   25   26 ar
  47   25   47 1
  48   26   27 ar
  49   26   48 1
  50   27   28 ar
  51   27   49 1
  52   28   50 1
  53   29   33 ar
  54   29   51 1
  55   30   31 ar
  56   30   52 1
  57   31   32 ar
  58   31   53 1
  59   32   33 ar
  60   32   54 1
  61   33   55 1
  62   35   56 1
  63   35   57 1

#	End of record

