#	Name: ASD06590064
#	Creating user name:	WinNT
#	Creation time:	15. 06. 2019 21:06

#	Modifying user name:	WinNT
#	Modification time:	15. 06. 2019 21:06

#	Program:	/corina/corina34_cracker 3.40 0067  02.08.2006

@<TRIPOS>MOLECULE
ASD06590064
 314  317    0    0    0
SMALL
NO_CHARGES


@<TRIPOS>ATOM
   1 C1            -0.1274     1.9802    -1.0479 C.2     
   2 O2            -0.0066     0.7748    -0.9909 O.2     
   3 N3             2.2895     2.1033    -0.8283 N.3     
   4 C4             1.0892     2.8519    -1.2241 C.3     
   5 C5             1.2092     3.2695    -2.6912 C.3     
   6 C6             2.3527     4.2388    -2.8456 C.2     
   7 O7             3.0068     4.5636    -1.8781 O.2     
   8 N8             2.6480     4.7447    -4.0594 N.am    
   9 C9            -3.7653     2.5573    -0.7216 C.2     
  10 O10           -3.6647     3.7634    -0.8005 O.2     
  11 N11           -1.3503     2.5399    -0.9591 N.am    
  12 C12           -2.5336     1.6921    -0.7938 C.3     
  13 C13           -7.2589     2.1028     0.2537 C.2     
  14 O14           -7.0508     0.9900     0.6888 O.2     
  15 N15           -4.9788     1.9909    -0.5694 N.am    
  16 C16           -6.1762     2.8320    -0.4993 C.3     
  17 C17           -6.6626     3.1459    -1.9155 C.3     
  18 C18           -5.6142     3.9937    -2.6387 C.3     
  19 C19           -6.0934     4.3029    -4.0336 C.2     
  20 O20           -7.1636     3.8877    -4.4107 O.2     
  21 O21           -5.3312     5.0395    -4.8572 O.3     
  22 C22          -10.8586     2.5014     0.7497 C.2     
  23 O23          -10.9539     3.6100     0.2672 O.2     
  24 N24           -8.4585     2.6871     0.4435 N.am    
  25 C25           -9.5110     1.9782     1.1754 C.3     
  26 C26           -9.3278     2.2034     2.6777 C.3     
  27 C27           -8.0241     1.5471     3.1364 C.3     
  28 C28           -9.2717     3.7050     2.9652 C.3     
  29 C29          -14.3320     1.5457     1.3707 C.2     
  30 O30          -14.0100     0.6556     2.1289 O.2     
  31 N31          -11.9580     1.7374     0.9053 N.am    
  32 C32          -13.2794     2.2807     0.5815 C.3     
  33 C33          -13.5496     2.1072    -0.9145 C.3     
  34 C34          -12.5569     2.9538    -1.7136 C.3     
  35 C35          -12.8230     2.7828    -3.1870 C.2     
  36 O36          -13.7185     2.0554    -3.5611 O.2     
  37 N37          -12.0659     3.4382    -4.0891 N.am    
  38 C38          -17.9742     1.2472     1.2785 C.2     
  39 O39          -18.0524     1.8453     0.2264 O.2     
  40 N40          -15.6311     1.8774     1.2338 N.am    
  41 C41          -16.6543     1.1628     2.0010 C.3     
  42 C42          -16.7896     1.7982     3.3862 C.3     
  43 C43          -21.4761     0.5818     2.0890 C.2     
  44 O44          -21.2306     0.4167     3.2651 O.2     
  45 N45          -19.0676     0.6579     1.8016 N.am    
  46 C46          -20.3507     0.7400     1.0993 C.3     
  47 C47          -20.4314    -0.3733     0.0529 C.3     
  48 C48          -19.3666    -0.1420    -1.0211 C.3     
  49 C49          -19.4461    -1.2386    -2.0518 C.2     
  50 O50          -20.2699    -2.1152    -1.9389 O.2     
  51 O51          -18.6017    -1.2414    -3.0952 O.3     
  52 C52          -25.0721    -0.0529     1.9201 C.2     
  53 O53          -25.0335    -0.2751     0.7284 O.2     
  54 N54          -22.7554     0.6237     1.6670 N.am    
  55 C55          -23.8494     0.4698     2.6291 C.3     
  56 C56          -24.1674     1.8265     3.2611 C.3     
  57 C57          -24.5841     2.8130     2.1683 C.3     
  58 C58          -25.0213     4.1309     2.8108 C.3     
  59 C59          -22.9260     2.3572     3.9809 C.3     
  60 C60          -28.6319    -0.3783     2.6849 C.2     
  61 O61          -28.5292     0.2699     3.7048 O.2     
  62 N62          -26.2086    -0.2735     2.6102 N.am    
  63 C63          -27.3972    -0.7817     1.9209 C.3     
  64 C64          -27.3250    -2.3077     1.8374 C.3     
  65 C65          -26.1416    -2.7149     0.9573 C.3     
  66 C66          -26.0693    -4.2409     0.8738 C.3     
  67 C67          -24.8859    -4.6481    -0.0063 C.3     
  68 N68          -24.8166    -6.1133    -0.0864 N.3     
  69 C69          -32.1656    -1.3144     2.6782 C.2     
  70 O70          -31.9762    -2.2411     1.9191 O.2     
  71 N71          -29.8504    -0.7379     2.2349 N.am    
  72 C72          -31.0507    -0.3457     2.9777 C.3     
  73 C73          -31.4729     1.0635     2.5573 C.3     
  74 C74          -30.3938     2.0649     2.9741 C.3     
  75 C75          -30.8159     3.4741     2.5537 C.3     
  76 C76          -29.7368     4.4754     2.9705 C.3     
  77 N77          -30.1422     5.8285     2.5669 N.3     
  78 C78          -35.7845    -1.4147     3.1845 C.2     
  79 O79          -35.8217    -0.2587     3.5496 O.2     
  80 N80          -33.3732    -1.1509     3.2540 N.am    
  81 C81          -34.4570    -2.0926     2.9629 C.3     
  82 C82          -34.3423    -3.3045     3.8897 C.3     
  83 O83          -34.5528    -2.8920     5.2416 O.3     
  84 C84          -39.2697    -2.4714     3.5005 C.2     
  85 O85          -38.9687    -3.6458     3.5366 O.2     
  86 N86          -36.9305    -2.0930     2.9770 N.am    
  87 C87          -38.2211    -1.4339     3.1924 C.3     
  88 C88          -38.6187    -0.6662     1.9300 C.3     
  89 C89          -37.6357     0.4507     1.6908 C.2     
  90 C90          -37.7686     1.7284     2.0802 C.2     
  91 N91          -36.6765     2.4524     1.6859 N.pl3   
  92 C92          -35.7916     1.6375     1.0160 C.ar    
  93 C93          -34.5542     1.8540     0.4190 C.ar    
  94 C94          -33.8953     0.8076    -0.1888 C.ar    
  95 C95          -34.4538    -0.4627    -0.2121 C.ar    
  96 C96          -35.6687    -0.6976     0.3679 C.ar    
  97 C97          -36.3509     0.3466     0.9948 C.ar    
  98 C98          -42.9204    -2.5705     3.6603 C.2     
  99 O99          -43.0269    -1.4581     3.1891 O.2     
 100 N100         -40.5420    -2.0944     3.7359 N.am    
 101 C101         -41.5615    -3.1030     4.0355 C.3     
 102 C102         -41.5353    -3.4261     5.5308 C.3     
 103 O103         -41.9190    -2.2681     6.2751 O.3     
 104 C104         -46.3945    -3.5089     4.3033 C.2     
 105 O105         -46.0750    -4.3540     5.1123 O.2     
 106 N106         -44.0174    -3.3306     3.8484 N.am    
 107 C107         -45.3385    -2.8130     3.4837 C.3     
 108 C108         -45.5946    -3.0703     1.9974 C.3     
 109 C109         -44.5989    -2.2639     1.1612 C.3     
 110 C110         -44.8550    -2.5213    -0.3251 C.3     
 111 N111         -43.9016    -1.7491    -1.1257 N.pl3   
 112 C112         -43.9396    -1.8211    -2.4981 C.2     
 113 N113         -44.8238    -2.5764    -3.0869 N.2     
 114 N114         -43.0449    -1.0965    -3.2495 N.pl3   
 115 C115         -49.1006    -5.1653     4.2667 C.2     
 116 O116         -48.5665    -5.4922     3.2280 O.2     
 117 N117         -47.6939    -3.1921     4.1371 N.am    
 118 C118         -48.7205    -3.8686     4.9338 C.3     
 119 C119         -49.9545    -2.9708     5.0439 C.3     
 120 C120         -49.6034    -1.7272     5.8193 C.2     
 121 C121         -49.7816    -1.5296     7.1350 C.2     
 122 N122         -49.3439    -0.2807     7.4828 N.pl3   
 123 C123         -48.8610     0.3725     6.3710 C.ar    
 124 C124         -48.3094     1.6325     6.1650 C.ar    
 125 C125         -47.9092     2.0059     4.9004 C.ar    
 126 C126         -48.0506     1.1367     3.8277 C.ar    
 127 C127         -48.5905    -0.1058     4.0075 C.ar    
 128 C128         -48.9970    -0.5071     5.2812 C.ar    
 129 C129         -51.4586    -6.9600     3.1322 C.2     
 130 O130         -51.8606    -5.8354     2.9491 O.2     
 131 N131         -50.0339    -5.9618     4.8243 N.am    
 132 C132         -50.4034    -7.2224     4.1757 C.3     
 133 C133         -50.9524    -8.1931     5.2232 C.3     
 134 C134         -49.9286    -8.3626     6.3475 C.3     
 135 O135         -52.1699    -7.6740     5.7620 O.3     
 136 O136         -51.9517    -7.9757     2.4062 O.3     
 137 C137           3.6706     5.6117    -4.1976 C.2     
 138 O138           4.3248     5.9364    -3.2300 O.2     
 139 C139          14.6993    16.8490   -14.3603 C.3     
 140 C140          14.3640    16.2747   -12.9823 C.3     
 141 C141          13.1709    15.3244   -13.1024 C.3     
 142 C142          12.8357    14.7502   -11.7244 C.3     
 143 C143          11.6426    13.7999   -11.8444 C.3     
 144 C144          11.3073    13.2257   -10.4665 C.3     
 145 C145          10.1142    12.2754   -10.5865 C.3     
 146 C146           9.7790    11.7011    -9.2086 C.3     
 147 C147           8.5859    10.7509    -9.3286 C.3     
 148 C148           8.2506    10.1766    -7.9506 C.3     
 149 C149           7.0575     9.2263    -8.0707 C.3     
 150 C150           6.7223     8.6521    -6.6927 C.3     
 151 C151           5.5292     7.7018    -6.8127 C.3     
 152 C152           5.1939     7.1275    -5.4348 C.3     
 153 C153           4.0008     6.1773    -5.5548 C.3     
 154 H154           2.2639     1.8718     0.1534 H       
 155 H155           2.4010     1.2743    -1.3925 H       
 156 H156           0.9930     3.7405    -0.6002 H       
 157 H157           1.3943     2.3884    -3.3057 H       
 158 H158           0.2826     3.7468    -3.0101 H       
 159 H159           2.1245     4.4848    -4.8336 H       
 160 H160          -1.4469     3.5040    -1.0047 H       
 161 H161          -2.4410     1.1143     0.1258 H       
 162 H162          -2.6156     1.0132    -1.6427 H       
 163 H163          -5.0593     1.0263    -0.5064 H       
 164 H164          -5.9374     3.7617     0.0173 H       
 165 H165          -6.8167     2.2151    -2.4614 H       
 166 H166          -7.6020     3.6963    -1.8634 H       
 167 H167          -5.4602     4.9245    -2.0928 H       
 168 H168          -4.6749     3.4433    -2.6908 H       
 169 H169          -5.6807     5.2115    -5.7423 H       
 170 H170          -8.6249     3.5771     0.0954 H       
 171 H171          -9.4499     0.9119     0.9577 H       
 172 H172         -10.1662     1.7614     3.2162 H       
 173 H173          -7.1778     2.0685     2.6891 H       
 174 H174          -7.9520     1.6026     4.2226 H       
 175 H175          -8.0135     0.5028     2.8245 H       
 176 H176         -10.2005     4.1725     2.6383 H       
 177 H177          -9.1412     3.8654     4.0354 H       
 178 H178          -8.4334     4.1470     2.4267 H       
 179 H179         -11.8743     0.8278     1.2317 H       
 180 H180         -13.3088     3.3403     0.8354 H       
 181 H181         -13.4328     1.0578    -1.1854 H       
 182 H182         -14.5661     2.4296    -1.1399 H       
 183 H183         -12.6737     4.0031    -1.4427 H       
 184 H184         -11.5404     2.6313    -1.4882 H       
 185 H185         -11.3497     4.0200    -3.7899 H       
 186 H186         -12.2372     3.3282    -5.0375 H       
 187 H187         -15.8886     2.5893     0.6273 H       
 188 H188         -16.3646     0.1174     2.1075 H       
 189 H189         -17.0793     2.8435     3.2797 H       
 190 H190         -17.5509     1.2665     3.9570 H       
 191 H191         -15.8350     1.7371     3.9088 H       
 192 H192         -19.0050     0.1795     2.6431 H       
 193 H193         -20.4338     1.7086     0.6064 H       
 194 H194         -20.2597    -1.3366     0.5333 H       
 195 H195         -21.4192    -0.3680    -0.4078 H       
 196 H196         -19.5383     0.8213    -1.5015 H       
 197 H197         -18.3787    -0.1473    -0.5604 H       
 198 H198         -18.6910    -1.9653    -3.7302 H       
 199 H199         -22.9518     0.7557     0.7263 H       
 200 H200         -23.5526    -0.2330     3.4076 H       
 201 H201         -24.9814     1.7120     3.9769 H       
 202 H202         -23.7404     2.9956     1.5027 H       
 203 H203         -25.4131     2.3943     1.5978 H       
 204 H204         -25.3181     4.8338     2.0323 H       
 205 H205         -25.8649     3.9484     3.4764 H       
 206 H206         -24.1923     4.5496     3.3814 H       
 207 H207         -23.1525     3.3237     4.4311 H       
 208 H208         -22.6292     1.6544     4.7594 H       
 209 H209         -22.1120     2.4717     3.2651 H       
 210 H210         -26.2395    -0.0958     3.5632 H       
 211 H211         -27.4400    -0.3645     0.9148 H       
 212 H212         -27.1928    -2.7204     2.8376 H       
 213 H213         -28.2487    -2.6921     1.4049 H       
 214 H214         -26.2737    -2.3022    -0.0429 H       
 215 H215         -25.2179    -2.3305     1.3898 H       
 216 H216         -25.9372    -4.6536     1.8740 H       
 217 H217         -26.9930    -4.6253     0.4413 H       
 218 H218         -25.0181    -4.2354    -1.0065 H       
 219 H219         -23.9622    -4.2637     0.4262 H       
 220 H220         -25.6858    -6.4985    -0.4242 H       
 221 H221         -24.0424    -6.4077    -0.6628 H       
 222 H222         -29.9326    -1.2563     1.4192 H       
 223 H223         -30.8366    -0.3572     4.0464 H       
 224 H224         -31.6010     1.0969     1.4754 H       
 225 H225         -32.4143     1.3208     3.0428 H       
 226 H226         -30.2656     2.0315     4.0560 H       
 227 H227         -29.4524     1.8076     2.4886 H       
 228 H228         -30.9441     3.5074     1.4718 H       
 229 H229         -31.7573     3.7314     3.0392 H       
 230 H230         -29.6087     4.4421     4.0525 H       
 231 H231         -28.7954     4.2182     2.4850 H       
 232 H232         -29.4454     6.5087     2.8313 H       
 233 H233         -30.3299     5.8694     1.5764 H       
 234 H234         -33.5246    -0.4097     3.8611 H       
 235 H235         -34.3849    -2.4202     1.9258 H       
 236 H236         -35.0935    -4.0448     3.6146 H       
 237 H237         -33.3487    -3.7424     3.7940 H       
 238 H238         -34.4944    -3.6108     5.8858 H       
 239 H239         -36.9008    -3.0175     2.6849 H       
 240 H240         -38.1396    -0.7401     4.0290 H       
 241 H241         -38.6138    -1.3436     1.0761 H       
 242 H242         -39.6178    -0.2497     2.0577 H       
 243 H243         -38.6127     2.1262     2.6240 H       
 244 H244         -36.5453     3.3988     1.8533 H       
 245 H245         -34.1115     2.8390     0.4316 H       
 246 H246         -32.9347     0.9777    -0.6522 H       
 247 H247         -33.9242    -1.2720    -0.6927 H       
 248 H248         -36.0974    -1.6887     0.3456 H       
 249 H249         -40.7828    -1.1552     3.7070 H       
 250 H250         -41.3556    -4.0083     3.4645 H       
 251 H251         -42.2310    -4.2389     5.7391 H       
 252 H252         -40.5283    -3.7267     5.8200 H       
 253 H253         -41.9247    -2.4004     7.2330 H       
 254 H254         -43.9322    -4.2203     4.2253 H       
 255 H255         -45.3752    -1.7411     3.6784 H       
 256 H256         -45.4703    -4.1324     1.7859 H       
 257 H257         -46.6106    -2.7662     1.7458 H       
 258 H258         -44.7232    -1.2019     1.3727 H       
 259 H259         -43.5829    -2.5681     1.4129 H       
 260 H260         -44.7307    -3.5833    -0.5366 H       
 261 H261         -45.8710    -2.2171    -0.5767 H       
 262 H262         -43.2436    -1.1871    -0.6876 H       
 263 H263         -44.8506    -2.6272    -4.0552 H       
 264 H264         -42.3869    -0.5344    -2.8114 H       
 265 H265         -43.0717    -1.1473    -4.2178 H       
 266 H266         -47.9494    -2.5162     3.4900 H       
 267 H267         -48.3302    -4.0736     5.9307 H       
 268 H268         -50.2921    -2.6933     4.0454 H       
 269 H269         -50.7500    -3.5083     5.5601 H       
 270 H270         -50.2077    -2.2497     7.8179 H       
 271 H271         -49.3699     0.0894     8.3790 H       
 272 H272         -48.1955     2.3162     6.9933 H       
 273 H273         -47.4813     2.9849     4.7424 H       
 274 H274         -47.7319     1.4449     2.8429 H       
 275 H275         -48.6979    -0.7766     3.1680 H       
 276 H276         -50.4610    -5.7004     5.6550 H       
 277 H277         -49.5241    -7.6585     3.7017 H       
 278 H278         -51.1441    -9.1598     4.7576 H       
 279 H279         -50.3197    -9.0542     7.0938 H       
 280 H280         -48.9999    -8.7586     5.9366 H       
 281 H281         -49.7369    -7.3959     6.8132 H       
 282 H282         -52.5751    -8.2391     6.4340 H       
 283 H283         -52.6268    -7.7582     1.7489 H       
 284 H284          14.9495    16.0358   -15.0417 H       
 285 H285          13.8379    17.3942   -14.7461 H       
 286 H286          15.5492    17.5259   -14.2748 H       
 287 H287          15.2254    15.7295   -12.5965 H       
 288 H288          14.1138    17.0878   -12.3009 H       
 289 H289          12.3095    15.8697   -13.4881 H       
 290 H290          13.4212    14.5113   -13.7838 H       
 291 H291          13.6970    14.2049   -11.3386 H       
 292 H292          12.5854    15.5633   -11.0430 H       
 293 H293          10.7812    14.3451   -12.2302 H       
 294 H294          11.8928    12.9868   -12.5258 H       
 295 H295          12.1687    12.6804   -10.0807 H       
 296 H296          11.0571    14.0388    -9.7851 H       
 297 H297           9.2528    12.8206   -10.9723 H       
 298 H298          10.3645    11.4623   -11.2679 H       
 299 H299          10.6404    11.1559    -8.8228 H       
 300 H300           9.5287    12.5142    -8.5272 H       
 301 H301           7.7245    11.2961    -9.7144 H       
 302 H302           8.8361     9.9377   -10.0100 H       
 303 H303           9.1120     9.6314    -7.5649 H       
 304 H304           8.0004    10.9897    -7.2692 H       
 305 H305           6.1961     9.7716    -8.4564 H       
 306 H306           7.3078     8.4132    -8.7521 H       
 307 H307           7.5837     8.1068    -6.3069 H       
 308 H308           6.4720     9.4652    -6.0113 H       
 309 H309           4.6678     8.2470    -7.1985 H       
 310 H310           5.7794     6.8887    -7.4941 H       
 311 H311           6.0553     6.5823    -5.0490 H       
 312 H312           4.9437     7.9407    -4.7534 H       
 313 H313           4.2511     5.3642    -6.2362 H       
 314 H314           3.1394     6.7225    -5.9406 H       
@<TRIPOS>BOND
   1    1    2 2
   2    1    4 1
   3    1   11 am
   4    3    4 1
   5    3  154 1
   6    3  155 1
   7    4    5 1
   8    4  156 1
   9    5    6 1
  10    5  157 1
  11    5  158 1
  12    6    7 2
  13    6    8 am
  14    8  137 am
  15    8  159 1
  16    9   10 2
  17    9   12 1
  18    9   15 am
  19   11   12 1
  20   11  160 1
  21   12  161 1
  22   12  162 1
  23   13   14 2
  24   13   16 1
  25   13   24 am
  26   15   16 1
  27   15  163 1
  28   16   17 1
  29   16  164 1
  30   17   18 1
  31   17  165 1
  32   17  166 1
  33   18   19 1
  34   18  167 1
  35   18  168 1
  36   19   20 2
  37   19   21 1
  38   21  169 1
  39   22   23 2
  40   22   25 1
  41   22   31 am
  42   24   25 1
  43   24  170 1
  44   25   26 1
  45   25  171 1
  46   26   27 1
  47   26   28 1
  48   26  172 1
  49   27  173 1
  50   27  174 1
  51   27  175 1
  52   28  176 1
  53   28  177 1
  54   28  178 1
  55   29   30 2
  56   29   32 1
  57   29   40 am
  58   31   32 1
  59   31  179 1
  60   32   33 1
  61   32  180 1
  62   33   34 1
  63   33  181 1
  64   33  182 1
  65   34   35 1
  66   34  183 1
  67   34  184 1
  68   35   36 2
  69   35   37 am
  70   37  185 1
  71   37  186 1
  72   38   39 2
  73   38   41 1
  74   38   45 am
  75   40   41 1
  76   40  187 1
  77   41   42 1
  78   41  188 1
  79   42  189 1
  80   42  190 1
  81   42  191 1
  82   43   44 2
  83   43   46 1
  84   43   54 am
  85   45   46 1
  86   45  192 1
  87   46   47 1
  88   46  193 1
  89   47   48 1
  90   47  194 1
  91   47  195 1
  92   48   49 1
  93   48  196 1
  94   48  197 1
  95   49   50 2
  96   49   51 1
  97   51  198 1
  98   52   53 2
  99   52   55 1
 100   52   62 am
 101   54   55 1
 102   54  199 1
 103   55   56 1
 104   55  200 1
 105   56   57 1
 106   56   59 1
 107   56  201 1
 108   57   58 1
 109   57  202 1
 110   57  203 1
 111   58  204 1
 112   58  205 1
 113   58  206 1
 114   59  207 1
 115   59  208 1
 116   59  209 1
 117   60   61 2
 118   60   63 1
 119   60   71 am
 120   62   63 1
 121   62  210 1
 122   63   64 1
 123   63  211 1
 124   64   65 1
 125   64  212 1
 126   64  213 1
 127   65   66 1
 128   65  214 1
 129   65  215 1
 130   66   67 1
 131   66  216 1
 132   66  217 1
 133   67   68 1
 134   67  218 1
 135   67  219 1
 136   68  220 1
 137   68  221 1
 138   69   70 2
 139   69   72 1
 140   69   80 am
 141   71   72 1
 142   71  222 1
 143   72   73 1
 144   72  223 1
 145   73   74 1
 146   73  224 1
 147   73  225 1
 148   74   75 1
 149   74  226 1
 150   74  227 1
 151   75   76 1
 152   75  228 1
 153   75  229 1
 154   76   77 1
 155   76  230 1
 156   76  231 1
 157   77  232 1
 158   77  233 1
 159   78   79 2
 160   78   81 1
 161   78   86 am
 162   80   81 1
 163   80  234 1
 164   81   82 1
 165   81  235 1
 166   82   83 1
 167   82  236 1
 168   82  237 1
 169   83  238 1
 170   84   85 2
 171   84   87 1
 172   84  100 am
 173   86   87 1
 174   86  239 1
 175   87   88 1
 176   87  240 1
 177   88   89 1
 178   88  241 1
 179   88  242 1
 180   89   90 2
 181   89   97 1
 182   90   91 1
 183   90  243 1
 184   91   92 1
 185   91  244 1
 186   92   93 ar
 187   92   97 ar
 188   93   94 ar
 189   93  245 1
 190   94   95 ar
 191   94  246 1
 192   95   96 ar
 193   95  247 1
 194   96   97 ar
 195   96  248 1
 196   98   99 2
 197   98  101 1
 198   98  106 am
 199  100  101 1
 200  100  249 1
 201  101  102 1
 202  101  250 1
 203  102  103 1
 204  102  251 1
 205  102  252 1
 206  103  253 1
 207  104  105 2
 208  104  107 1
 209  104  117 am
 210  106  107 1
 211  106  254 1
 212  107  108 1
 213  107  255 1
 214  108  109 1
 215  108  256 1
 216  108  257 1
 217  109  110 1
 218  109  258 1
 219  109  259 1
 220  110  111 1
 221  110  260 1
 222  110  261 1
 223  111  112 1
 224  111  262 1
 225  112  113 2
 226  112  114 1
 227  113  263 1
 228  114  264 1
 229  114  265 1
 230  115  116 2
 231  115  118 1
 232  115  131 am
 233  117  118 1
 234  117  266 1
 235  118  119 1
 236  118  267 1
 237  119  120 1
 238  119  268 1
 239  119  269 1
 240  120  121 2
 241  120  128 1
 242  121  122 1
 243  121  270 1
 244  122  123 1
 245  122  271 1
 246  123  124 ar
 247  123  128 ar
 248  124  125 ar
 249  124  272 1
 250  125  126 ar
 251  125  273 1
 252  126  127 ar
 253  126  274 1
 254  127  128 ar
 255  127  275 1
 256  129  130 2
 257  129  132 1
 258  129  136 1
 259  131  132 1
 260  131  276 1
 261  132  133 1
 262  132  277 1
 263  133  134 1
 264  133  135 1
 265  133  278 1
 266  134  279 1
 267  134  280 1
 268  134  281 1
 269  135  282 1
 270  136  283 1
 271  137  138 2
 272  137  153 1
 273  139  140 1
 274  139  284 1
 275  139  285 1
 276  139  286 1
 277  140  141 1
 278  140  287 1
 279  140  288 1
 280  141  142 1
 281  141  289 1
 282  141  290 1
 283  142  143 1
 284  142  291 1
 285  142  292 1
 286  143  144 1
 287  143  293 1
 288  143  294 1
 289  144  145 1
 290  144  295 1
 291  144  296 1
 292  145  146 1
 293  145  297 1
 294  145  298 1
 295  146  147 1
 296  146  299 1
 297  146  300 1
 298  147  148 1
 299  147  301 1
 300  147  302 1
 301  148  149 1
 302  148  303 1
 303  148  304 1
 304  149  150 1
 305  149  305 1
 306  149  306 1
 307  150  151 1
 308  150  307 1
 309  150  308 1
 310  151  152 1
 311  151  309 1
 312  151  310 1
 313  152  153 1
 314  152  311 1
 315  152  312 1
 316  153  313 1
 317  153  314 1

#	End of record

