#	Name: ASD01152498
#	Creating user name:	WinNT
#	Creation time:	15. 06. 2019 19:05

#	Modifying user name:	WinNT
#	Modification time:	15. 06. 2019 19:05

#	Program:	/corina/corina34_cracker 3.40 0067  02.08.2006

@<TRIPOS>MOLECULE
ASD01152498
  53   56    0    0    0
SMALL
NO_CHARGES


@<TRIPOS>ATOM
   1 C1             0.1107     1.1569    -0.6965 C.2     
   2 N2             0.0184    -0.1438    -0.6179 N.2     
   3 N3            -1.1208    -0.7663    -0.1081 N.am    
   4 C4            -2.2618    -0.0996     0.1332 C.2     
   5 C5            -2.3931     1.3532    -0.2595 C.3     
   6 C6            -1.0091     1.9734    -0.2041 C.2     
   7 C7            -2.9569     1.4574    -1.6780 C.3     
   8 O8            -0.8367     3.0970     0.2214 O.2     
   9 C9            -1.0736    -2.1392     0.1619 C.ar    
  10 O10           -3.1905    -0.6665     0.6685 O.2     
  11 C11           -3.2001     2.9055    -2.0168 C.ar    
  12 C12           -0.0101    -2.6697     0.8787 C.ar    
  13 C13           -2.0943    -2.9704    -0.2825 C.ar    
  14 C14           -2.0494    -4.3253    -0.0164 C.ar    
  15 C15           -0.9885    -4.8585     0.6937 C.ar    
  16 C16            0.0336    -4.0301     1.1451 C.ar    
  17 C17           -2.1986     3.6532    -2.6078 C.ar    
  18 C18           -2.4173     4.9814    -2.9196 C.ar    
  19 C19           -3.6441     5.5660    -2.6396 C.ar    
  20 C20           -4.6505     4.8122    -2.0455 C.ar    
  21 C21           -4.4265     3.4820    -1.7408 C.ar    
  22 N22           -3.8686     6.9141    -2.9547 N.pl3   
  23 F23           -0.9475    -6.1838     0.9528 F       
  24 F24           -5.8466     5.3772    -1.7710 F       
  25 C25           -5.0115     7.6027    -2.7363 C.2     
  26 N26           -2.9462     7.7873    -3.5457 N.2     
  27 C27           -3.5185     8.9566    -3.6812 C.2     
  28 C28           -4.8212     8.8674    -3.1788 C.2     
  29 N29            1.1054    -4.5690     1.8677 N.am    
  30 C30            1.7698    -3.8055     2.7576 C.2     
  31 O31            1.5003    -2.6279     2.8670 O.2     
  32 C32            2.8477    -4.4147     3.6167 C.3     
  33 O33            1.2204     1.7434    -1.2172 O.3     
  34 C34            2.2629     0.8753    -1.6663 C.3     
  35 H35           -3.0536     1.8662     0.4395 H       
  36 H36           -2.2432     1.0339    -2.3847 H       
  37 H37           -3.8963     0.9077    -1.7370 H       
  38 H38            0.7822    -2.0243     1.2282 H       
  39 H39           -2.9241    -2.5569    -0.8365 H       
  40 H40           -2.8440    -4.9694    -0.3629 H       
  41 H41           -1.2436     3.1984    -2.8259 H       
  42 H42           -1.6336     5.5643    -3.3807 H       
  43 H43           -5.2071     2.8951    -1.2797 H       
  44 H44           -5.9142     7.2133    -2.2894 H       
  45 H45           -3.0627     9.8390    -4.1054 H       
  46 H46           -5.5469     9.6668    -3.1493 H       
  47 H47            1.3695    -5.4918     1.7277 H       
  48 H48            2.9468    -5.4738     3.3786 H       
  49 H49            3.7941    -3.9091     3.4252 H       
  50 H50            2.5816    -4.3020     4.6677 H       
  51 H51            3.0878     1.4705    -2.0578 H       
  52 H52            2.6160     0.2696    -0.8317 H       
  53 H53            1.8800     0.2238    -2.4518 H       
@<TRIPOS>BOND
   1    1    2 2
   2    1   33 1
   3    1    6 1
   4    2    3 1
   5    3    4 am
   6    3    9 1
   7    4    5 1
   8    4   10 2
   9    5    6 1
  10    5    7 1
  11    5   35 1
  12    6    8 2
  13    7   11 1
  14    7   36 1
  15    7   37 1
  16    9   12 ar
  17    9   13 ar
  18   11   17 ar
  19   11   21 ar
  20   12   16 ar
  21   12   38 1
  22   13   14 ar
  23   13   39 1
  24   14   15 ar
  25   14   40 1
  26   15   16 ar
  27   15   23 1
  28   16   29 1
  29   17   18 ar
  30   17   41 1
  31   18   19 ar
  32   18   42 1
  33   19   20 ar
  34   19   22 1
  35   20   21 ar
  36   20   24 1
  37   21   43 1
  38   22   25 1
  39   22   26 1
  40   25   28 2
  41   25   44 1
  42   26   27 2
  43   27   28 1
  44   27   45 1
  45   28   46 1
  46   29   30 am
  47   29   47 1
  48   30   31 2
  49   30   32 1
  50   32   48 1
  51   32   49 1
  52   32   50 1
  53   33   34 1
  54   34   51 1
  55   34   52 1
  56   34   53 1

#	End of record

