#	Name: ASD01912472
#	Creating user name:	WinNT
#	Creation time:	15. 06. 2019 19:59

#	Modifying user name:	WinNT
#	Modification time:	15. 06. 2019 19:59

#	Program:	/corina/corina34_cracker 3.40 0067  02.08.2006

@<TRIPOS>MOLECULE
ASD01912472
  59   63    0    0    0
SMALL
NO_CHARGES


@<TRIPOS>ATOM
   1 C1             0.1213     1.4120     0.1995 C.ar    
   2 C2             0.1177     0.0286     0.2480 C.ar    
   3 C3             1.2751    -0.6639    -0.1003 C.ar    
   4 N4             2.3665    -0.0084    -0.4736 N.ar    
   5 C5             2.3969     1.3077    -0.5284 C.ar    
   6 C6             1.2839     2.0578    -0.1963 C.ar    
   7 C7             1.2876    -2.1467    -0.0531 C.2     
   8 N8             0.2777    -2.9158     0.2979 N.2     
   9 C9             2.3772    -2.9715    -0.3810 C.2     
  10 C10            1.9858    -4.2666    -0.2086 C.2     
  11 N11            0.6884    -4.2520     0.2117 N.pl3   
  12 C12            2.8169    -5.4693    -0.4391 C.ar    
  13 C13           -0.1312    -5.4269     0.5183 C.3     
  14 C14           -0.0560    -5.7204     1.9945 C.2     
  15 N15           -0.7356    -6.7641     2.5096 N.am    
  16 O16            0.6162    -5.0175     2.7191 O.2     
  17 C17           -0.6760    -7.0683     3.9473 C.3     
  18 C18           -1.5614    -7.6255     1.6497 C.3     
  19 C19           -2.9566    -7.7410     2.2729 C.3     
  20 N20           -2.8316    -8.1906     3.6658 N.3     
  21 C21           -2.1078    -7.2069     4.4754 C.3     
  22 C22           -4.0791    -8.4636     4.2149 C.ar    
  23 C23           -4.1714    -8.9040     5.5311 C.ar    
  24 N24           -5.1694    -8.2969     3.4821 N.ar    
  25 C25           -6.3721    -8.5445     3.9650 C.ar    
  26 C26           -6.5367    -8.9891     5.2617 C.ar    
  27 C27           -5.4192    -9.1719     6.0650 C.ar    
  28 C28            1.3328     3.5625    -0.2641 C.3     
  29 C29            3.9205    -5.4055    -1.2899 C.ar    
  30 C30            2.5033    -6.6699     0.1982 C.ar    
  31 C31            3.2823    -7.7876    -0.0204 C.ar    
  32 C32            4.3724    -7.7193    -0.8695 C.ar    
  33 C33            4.6916    -6.5302    -1.5003 C.ar    
  34 H34           -0.7623     1.9758     0.4596 H       
  35 H35           -0.7698    -0.5064     0.5520 H       
  36 H36            3.3034     1.8073    -0.8366 H       
  37 H37            3.3504    -2.6392    -0.7109 H       
  38 H38           -1.1664    -5.2306     0.2392 H       
  39 H39            0.2397    -6.2850    -0.0421 H       
  40 H40           -0.1367    -8.0029     4.1018 H       
  41 H41           -0.1689    -6.2586     4.4722 H       
  42 H42           -1.6395    -7.1841     0.6562 H       
  43 H43           -1.1087    -8.6146     1.5795 H       
  44 H44           -3.4480    -6.7684     2.2473 H       
  45 H45           -3.5480    -8.4627     1.7094 H       
  46 H46           -2.0779    -7.5407     5.5125 H       
  47 H47           -2.6153    -6.2440     4.4173 H       
  48 H48           -3.2809    -9.0353     6.1280 H       
  49 H49           -7.2390    -8.3971     3.3379 H       
  50 H50           -7.5251    -9.1885     5.6486 H       
  51 H51           -5.5214    -9.5187     7.0827 H       
  52 H52            1.0300     3.8915    -1.2582 H       
  53 H53            0.6551     3.9819     0.4795 H       
  54 H54            2.3486     3.9025    -0.0626 H       
  55 H55            4.1705    -4.4779    -1.7833 H       
  56 H56            1.6528    -6.7244     0.8616 H       
  57 H57            3.0408    -8.7176     0.4727 H       
  58 H58            4.9793    -8.5968    -1.0371 H       
  59 H59            5.5436    -6.4832    -2.1624 H       
@<TRIPOS>BOND
   1    1    2 ar
   2    1    6 ar
   3    1   34 1
   4    2    3 ar
   5    2   35 1
   6    3    4 ar
   7    3    7 1
   8    4    5 ar
   9    5    6 ar
  10    5   36 1
  11    6   28 1
  12    7    8 2
  13    7    9 1
  14    8   11 1
  15    9   10 2
  16    9   37 1
  17   10   11 1
  18   10   12 1
  19   11   13 1
  20   12   30 ar
  21   12   29 ar
  22   13   14 1
  23   13   38 1
  24   13   39 1
  25   14   15 am
  26   14   16 2
  27   15   17 1
  28   15   18 1
  29   17   21 1
  30   17   40 1
  31   17   41 1
  32   18   19 1
  33   18   42 1
  34   18   43 1
  35   19   20 1
  36   19   44 1
  37   19   45 1
  38   20   21 1
  39   20   22 1
  40   21   46 1
  41   21   47 1
  42   22   23 ar
  43   22   24 ar
  44   23   27 ar
  45   23   48 1
  46   24   25 ar
  47   25   26 ar
  48   25   49 1
  49   26   27 ar
  50   26   50 1
  51   27   51 1
  52   28   52 1
  53   28   53 1
  54   28   54 1
  55   29   33 ar
  56   29   55 1
  57   30   31 ar
  58   30   56 1
  59   31   32 ar
  60   31   57 1
  61   32   33 ar
  62   32   58 1
  63   33   59 1

#	End of record

