#	Name: ASD05313022
#	Creating user name:	WinNT
#	Creation time:	15. 06. 2019 20:58

#	Modifying user name:	WinNT
#	Modification time:	15. 06. 2019 20:58

#	Program:	/corina/corina34_cracker 3.40 0067  02.08.2006

@<TRIPOS>MOLECULE
ASD05313022
  45   48    0    0    0
SMALL
NO_CHARGES


@<TRIPOS>ATOM
   1 C1            -0.0736     0.8190     1.0170 C.2     
   2 C2             0.1127    -0.6176     0.5915 C.3     
   3 N3             0.9409     1.7391     1.0431 N.pl3   
   4 N4             1.4569    -0.7161    -0.0086 N.am    
   5 C5             2.5718    -0.0378     0.6692 C.3     
   6 C6             2.3263     1.4760     0.6588 C.3     
   7 N7            -0.8911     2.6464     1.6949 N.2     
   8 N8            -1.1510     1.4151     1.4166 N.2     
   9 C9             0.3833     2.8947     1.4833 C.2     
  10 N10            1.0321     4.1040     1.6757 N.3     
  11 C11            0.0993     5.1309     2.1622 C.3     
  12 C12            0.8673     6.4304     2.4175 C.3     
  13 O13            1.5327     6.8290     1.2160 O.3     
  14 C14            2.4494     5.8525     0.7145 C.3     
  15 C15            1.6975     4.5470     0.4419 C.3     
  16 C16            1.6577    -1.4093    -1.1468 C.2     
  17 O17            2.7498    -1.3983    -1.6806 O.2     
  18 C18            0.5503    -2.1828    -1.7459 C.ar    
  19 C19            0.3185    -2.1255    -3.1227 C.ar    
  20 C20           -0.7185    -2.8513    -3.6753 C.ar    
  21 C21           -1.5262    -3.6324    -2.8688 C.ar    
  22 C22           -1.3019    -3.6927    -1.5046 C.ar    
  23 C23           -0.2657    -2.9784    -0.9400 C.ar    
  24 C24           -0.9709    -2.7916    -5.1598 C.3     
  25 F25           -2.0647    -3.6030    -5.4799 F       
  26 F26           -1.2443    -1.4714    -5.5336 F       
  27 F27            0.1621    -3.2448    -5.8440 F       
  28 Cl28           1.3310    -1.1445    -4.1358 Cl      
  29 H29            0.0430    -1.2746     1.4584 H       
  30 H30           -0.6442    -0.8890    -0.1443 H       
  31 H31            2.6389    -0.3884     1.6991 H       
  32 H32            3.5031    -0.2588     0.1478 H       
  33 H33            2.5075     1.8678    -0.3421 H       
  34 H34            2.9990     1.9589     1.3675 H       
  35 H35           -0.6727     5.3055     1.4128 H       
  36 H36           -0.3627     4.7929     3.0897 H       
  37 H37            0.1705     7.2108     2.7237 H       
  38 H38            1.6034     6.2695     3.2050 H       
  39 H39            2.8969     6.2148    -0.2110 H       
  40 H40            3.2316     5.6747     1.4525 H       
  41 H41            2.4021     3.7828     0.1138 H       
  42 H42            0.9510     4.7124    -0.3349 H       
  43 H43           -2.3361    -4.1978    -3.3057 H       
  44 H44           -1.9371    -4.3043    -0.8810 H       
  45 H45           -0.0891    -3.0309     0.1242 H       
@<TRIPOS>BOND
   1    1    2 1
   2    1    3 1
   3    1    8 2
   4    2    4 1
   5    2   29 1
   6    2   30 1
   7    3    6 1
   8    3    9 1
   9    4    5 1
  10    4   16 am
  11    5    6 1
  12    5   31 1
  13    5   32 1
  14    6   33 1
  15    6   34 1
  16    7    8 1
  17    7    9 2
  18    9   10 1
  19   10   11 1
  20   10   15 1
  21   11   12 1
  22   11   35 1
  23   11   36 1
  24   12   13 1
  25   12   37 1
  26   12   38 1
  27   13   14 1
  28   14   15 1
  29   14   39 1
  30   14   40 1
  31   15   41 1
  32   15   42 1
  33   16   17 2
  34   16   18 1
  35   18   19 ar
  36   18   23 ar
  37   19   20 ar
  38   19   28 1
  39   20   21 ar
  40   20   24 1
  41   21   22 ar
  42   21   43 1
  43   22   23 ar
  44   22   44 1
  45   23   45 1
  46   24   25 1
  47   24   26 1
  48   24   27 1

#	End of record

