#	Name: ASD02560378
#	Creating user name:	WinNT
#	Creation time:	15. 06. 2019 20:25

#	Modifying user name:	WinNT
#	Modification time:	15. 06. 2019 20:25

#	Program:	/corina/corina34_cracker 3.40 0067  02.08.2006

@<TRIPOS>MOLECULE
ASD02560378
  46   48    0    0    0
SMALL
NO_CHARGES


@<TRIPOS>ATOM
   1 C1             0.0997     1.3934     0.9588 C.2     
   2 C2             0.0809     0.0045     0.7386 C.2     
   3 C3             1.2261    -0.6611     0.4883 C.2     
   4 N4             2.4226     0.0029     0.4441 N.pl3   
   5 C5             2.4721     1.3620     0.6551 C.2     
   6 C6             1.2792     2.0681     0.9184 C.2     
   7 C7             3.7027    -0.4201     0.2151 C.2     
   8 C8             4.5110     0.6943     0.2914 C.2     
   9 N9             3.7311     1.7574     0.5597 N.2     
  10 C10            5.9818     0.7171     0.1105 C.ar    
  11 N11            4.1123    -1.7289    -0.0453 N.3     
  12 C12            2.9891    -2.6671     0.0809 C.3     
  13 C13            8.1245    -0.3346     0.3732 C.ar    
  14 C14            6.7560    -0.3592     0.5432 C.ar    
  15 C15            3.5040    -4.1010    -0.0595 C.3     
  16 C16            2.3341    -5.0782     0.0718 C.3     
  17 C17            2.8490    -6.5121    -0.0686 C.3     
  18 C18            6.5943     1.8123    -0.4980 C.ar    
  19 C19            7.9632     1.8302    -0.6648 C.ar    
  20 C20            8.7313     0.7595    -0.2281 C.ar    
  21 O21           10.0802     0.7802    -0.3944 O.3     
  22 C22           10.8096    -0.3542     0.0779 C.3     
  23 C23            1.6791    -7.4893     0.0628 C.3     
  24 H24           -0.8208     1.9231     1.1549 H       
  25 H25           -0.8560    -0.5318     0.7706 H       
  26 H26            1.1996    -1.7278     0.3215 H       
  27 H27            1.3029     3.1348     1.0856 H       
  28 H28            4.5416    -1.7990    -0.9557 H       
  29 H29            2.5202    -2.5434     1.0571 H       
  30 H30            2.2576    -2.4655    -0.7017 H       
  31 H31            8.7247    -1.1675     0.7084 H       
  32 H32            6.2845    -1.2107     1.0111 H       
  33 H33            3.9729    -4.2247    -1.0357 H       
  34 H34            4.2354    -4.3027     0.7230 H       
  35 H35            1.8652    -4.9545     1.0480 H       
  36 H36            1.6026    -4.8766    -0.7107 H       
  37 H37            3.3179    -6.6358    -1.0448 H       
  38 H38            3.5804    -6.7137     0.7140 H       
  39 H39            5.9972     2.6454    -0.8386 H       
  40 H40            8.4382     2.6780    -1.1359 H       
  41 H41           10.6484    -0.4691     1.1498 H       
  42 H42           10.4644    -1.2493    -0.4395 H       
  43 H43           11.8723    -0.2093    -0.1162 H       
  44 H44            1.2102    -7.3656     1.0390 H       
  45 H45            0.9476    -7.2876    -0.7197 H       
  46 H46            2.0459    -8.5108    -0.0372 H       
@<TRIPOS>BOND
   1    1    2 1
   2    1    6 2
   3    1   24 1
   4    2    3 2
   5    2   25 1
   6    3    4 1
   7    3   26 1
   8    4    5 1
   9    4    7 1
  10    5    6 1
  11    5    9 2
  12    6   27 1
  13    7    8 2
  14    7   11 1
  15    8    9 1
  16    8   10 1
  17   10   18 ar
  18   10   14 ar
  19   11   12 1
  20   11   28 1
  21   12   15 1
  22   12   29 1
  23   12   30 1
  24   13   14 ar
  25   13   20 ar
  26   13   31 1
  27   14   32 1
  28   15   16 1
  29   15   33 1
  30   15   34 1
  31   16   17 1
  32   16   35 1
  33   16   36 1
  34   17   23 1
  35   17   37 1
  36   17   38 1
  37   18   19 ar
  38   18   39 1
  39   19   20 ar
  40   19   40 1
  41   20   21 1
  42   21   22 1
  43   22   41 1
  44   22   42 1
  45   22   43 1
  46   23   44 1
  47   23   45 1
  48   23   46 1

#	End of record

