#	Name: ASD04880322
#	Creating user name:	WinNT
#	Creation time:	15. 06. 2019 20:53

#	Modifying user name:	WinNT
#	Modification time:	15. 06. 2019 20:53

#	Program:	/corina/corina34_cracker 3.40 0067  02.08.2006

@<TRIPOS>MOLECULE
ASD04880322
  63   66    0    0    0
SMALL
NO_CHARGES


@<TRIPOS>ATOM
   1 C1            -0.0055     1.3708     0.2991 C.ar    
   2 C2             0.0100    -0.0223     0.2656 C.ar    
   3 C3            -1.1785    -0.7257     0.2186 C.ar    
   4 C4            -2.3945    -0.0366     0.2050 C.ar    
   5 C5            -2.4023     1.3598     0.2388 C.ar    
   6 C6            -1.2120     2.0548     0.2909 C.ar    
   7 C7            -3.6655    -0.7817     0.1545 C.2     
   8 O8             1.1648     2.0608     0.3457 O.3     
   9 C9             1.0763     3.4867     0.3782 C.3     
  10 O10            1.1949    -0.6896     0.2785 O.3     
  11 C11            1.1361    -2.1169     0.2423 C.3     
  12 N12           -3.7742    -2.0652     0.1205 N.2     
  13 N13           -5.0891    -2.5241     0.0758 N.am    
  14 C14           -5.9975    -1.3664     0.0809 C.3     
  15 C15           -5.0427    -0.1577     0.1412 C.3     
  16 C16           -5.4672    -3.8170     0.0344 C.2     
  17 C17           -4.4492    -4.8810    -0.0925 C.ar    
  18 O18           -6.6459    -4.1082     0.1013 O.2     
  19 C19           -4.8213    -6.2222     0.0078 C.ar    
  20 C20           -3.8642    -7.2119    -0.1123 C.ar    
  21 C21           -2.5385    -6.8735    -0.3313 C.ar    
  22 C22           -2.1653    -5.5451    -0.4313 C.ar    
  23 C23           -3.1122    -4.5484    -0.3189 C.ar    
  24 C24           -5.2813     0.6424     1.3958 C.ar    
  25 C25           -5.6592     1.9701     1.3045 C.ar    
  26 C26           -5.8792     2.7081     2.4493 C.ar    
  27 C27           -5.7198     2.1125     3.7010 C.ar    
  28 C28           -5.3384     0.7730     3.7862 C.ar    
  29 C29           -5.1270     0.0445     2.6337 C.ar    
  30 F30           -4.2215    -8.5112    -0.0156 F       
  31 C31           -5.9461     2.8729     4.8932 C.1     
  32 C32           -6.1316     3.4963     5.8706 C.1     
  33 C33           -6.3642     4.2779     7.0960 C.3     
  34 C34           -6.1218     3.3921     8.3197 C.3     
  35 C35           -5.4049     5.4693     7.1308 C.3     
  36 O36           -7.7124     4.7514     7.1103 O.3     
  37 H37           -1.1679    -1.8054     0.1922 H       
  38 H38           -3.3402     1.8951     0.2284 H       
  39 H39           -1.2193     3.1345     0.3174 H       
  40 H40            0.5637     3.8394    -0.5168 H       
  41 H41            0.5185     3.7961     1.2621 H       
  42 H42            2.0792     3.9123     0.4141 H       
  43 H43            0.5859    -2.4801     1.1104 H       
  44 H44            0.6298    -2.4367    -0.6685 H       
  45 H45            2.1476    -2.5228     0.2574 H       
  46 H46           -6.5945    -1.3433    -0.8308 H       
  47 H47           -6.6402    -1.3869     0.9610 H       
  48 H48           -5.1635     0.4694    -0.7421 H       
  49 H49           -5.8545    -6.4862     0.1792 H       
  50 H50           -1.7935    -7.6498    -0.4238 H       
  51 H51           -1.1303    -5.2878    -0.6017 H       
  52 H52           -2.8186    -3.5121    -0.3978 H       
  53 H53           -5.7820     2.4300     0.3350 H       
  54 H54           -6.1739     3.7446     2.3767 H       
  55 H55           -5.2133     0.3063     4.7521 H       
  56 H56           -4.8318    -0.9924     2.6982 H       
  57 H57           -5.0934     3.0309     8.3088 H       
  58 H58           -6.2941     3.9708     9.2271 H       
  59 H59           -6.8053     2.5433     8.2949 H       
  60 H60           -5.5776     6.1004     6.2591 H       
  61 H61           -5.5771     6.0481     8.0383 H       
  62 H62           -4.3765     5.1082     7.1200 H       
  63 H63           -7.9369     5.2758     7.8911 H       
@<TRIPOS>BOND
   1    1    2 ar
   2    1    8 1
   3    1    6 ar
   4    2    3 ar
   5    2   10 1
   6    3    4 ar
   7    3   37 1
   8    4    5 ar
   9    4    7 1
  10    5    6 ar
  11    5   38 1
  12    6   39 1
  13    7   12 2
  14    7   15 1
  15    8    9 1
  16    9   40 1
  17    9   41 1
  18    9   42 1
  19   10   11 1
  20   11   43 1
  21   11   44 1
  22   11   45 1
  23   12   13 1
  24   13   14 1
  25   13   16 am
  26   14   15 1
  27   14   46 1
  28   14   47 1
  29   15   24 1
  30   15   48 1
  31   16   17 1
  32   16   18 2
  33   17   19 ar
  34   17   23 ar
  35   19   20 ar
  36   19   49 1
  37   20   21 ar
  38   20   30 1
  39   21   22 ar
  40   21   50 1
  41   22   23 ar
  42   22   51 1
  43   23   52 1
  44   24   25 ar
  45   24   29 ar
  46   25   26 ar
  47   25   53 1
  48   26   27 ar
  49   26   54 1
  50   27   28 ar
  51   27   31 1
  52   28   29 ar
  53   28   55 1
  54   29   56 1
  55   31   32 3
  56   32   33 1
  57   33   34 1
  58   33   35 1
  59   33   36 1
  60   34   57 1
  61   34   58 1
  62   34   59 1
  63   35   60 1
  64   35   61 1
  65   35   62 1
  66   36   63 1

#	End of record

