#	Name: ASD03331042
#	Creating user name:	WinNT
#	Creation time:	15. 06. 2019 20:38

#	Modifying user name:	WinNT
#	Modification time:	15. 06. 2019 20:38

#	Program:	/corina/corina34_cracker 3.40 0067  02.08.2006

@<TRIPOS>MOLECULE
ASD03331042
  78   81    0    0    0
SMALL
NO_CHARGES


@<TRIPOS>ATOM
   1 N1             0.2838     0.8853     0.3647 N.am    
   2 C2             0.2900    -0.5125    -0.0891 C.3     
   3 C3             0.9447    -0.5750    -1.4747 C.3     
   4 N4             2.2165     0.1598    -1.4267 N.am    
   5 C5             2.2103     1.5576    -0.9729 C.3     
   6 C6             1.5557     1.6201     0.4127 C.3     
   7 C7            -0.8685     1.4843     0.7252 C.2     
   8 O8            -1.9146     0.8682     0.6765 O.2     
   9 O9            -0.8604     2.7654     1.1391 O.3     
  10 C10            3.3681    -0.4377    -1.7920 C.2     
  11 C11            4.6456     0.3597    -1.8491 C.3     
  12 C12            4.7992     0.9778    -3.2402 C.3     
  13 C13            3.5524     1.7996    -3.5737 C.3     
  14 O14            3.3763    -1.6170    -2.0747 O.2     
  15 C15            6.0298     1.8867    -3.2614 C.3     
  16 C16            4.9690    -0.1347    -4.2767 C.3     
  17 C17            6.9288    -0.0109    -1.0830 C.2     
  18 O18            7.0168     1.1818    -0.8615 O.2     
  19 N19            5.7839    -0.5216    -1.5779 N.am    
  20 N20           10.0517    -1.6353    -0.2299 N.pl3   
  21 C21            9.2829    -0.5170    -0.3128 C.2     
  22 C22            9.7072     0.8715     0.0889 C.3     
  23 N23           11.0358     1.1524    -0.4773 N.3     
  24 C24           12.1008     0.7231     0.4310 C.3     
  25 C25           11.6890    -0.5272     1.2028 C.3     
  26 C26           11.4435    -1.6814     0.2271 C.3     
  27 C27            9.2931    -2.6853    -0.6587 C.2     
  28 N28            8.1118    -2.2333    -1.0089 N.2     
  29 C29            8.0738    -0.8974    -0.8102 C.2     
  30 C30           11.1738     2.5754    -0.8152 C.3     
  31 C31            9.7294    -4.0973    -0.7191 C.ar    
  32 C32            8.9042    -5.1088    -0.2202 C.ar    
  33 C33            9.3182    -6.4261    -0.2805 C.ar    
  34 C34           10.5457    -6.7433    -0.8328 C.ar    
  35 C35           11.3677    -5.7453    -1.3281 C.ar    
  36 C36           10.9637    -4.4256    -1.2794 C.ar    
  37 F37            7.7050    -4.7998     0.3199 F       
  38 Cl38          12.9071    -6.1546    -2.0183 Cl      
  39 C39           -2.1381     3.3459     1.5117 C.3     
  40 C40           -1.9303     4.7964     1.9517 C.3     
  41 H41            0.8594    -1.1223     0.6123 H       
  42 H42           -0.7337    -0.8815    -0.1512 H       
  43 H43            1.1326    -1.6143    -1.7440 H       
  44 H44            0.2852    -0.1170    -2.2119 H       
  45 H45            3.2341     1.9266    -0.9107 H       
  46 H46            1.6409     2.1674    -1.6743 H       
  47 H47            1.3678     2.6594     0.6820 H       
  48 H48            2.2152     1.1621     1.1499 H       
  49 H49            4.6132     1.1519    -1.1011 H       
  50 H50            3.4341     2.5951    -2.8381 H       
  51 H51            3.6598     2.2360    -4.5668 H       
  52 H52            2.6751     1.1530    -3.5539 H       
  53 H53            6.9180     1.3013    -3.0238 H       
  54 H54            6.1392     2.3271    -4.2525 H       
  55 H55            5.9088     2.6794    -2.5230 H       
  56 H56            4.0923    -0.7823    -4.2616 H       
  57 H57            5.0785     0.3056    -5.2678 H       
  58 H58            5.8572    -0.7201    -4.0391 H       
  59 H59            5.7137    -1.4728    -1.7546 H       
  60 H60            8.9881     1.5967    -0.2919 H       
  61 H61            9.7528     0.9384     1.1759 H       
  62 H62           12.9993     0.5074    -0.1472 H       
  63 H63           12.3145     1.5256     1.1371 H       
  64 H64           12.4829    -0.8024     1.8972 H       
  65 H65           10.7751    -0.3240     1.7610 H       
  66 H66           11.6306    -2.6300     0.7303 H       
  67 H67           12.1115    -1.5834    -0.6286 H       
  68 H68           10.9737     3.1800     0.0694 H       
  69 H69           12.1876     2.7688    -1.1658 H       
  70 H70           10.4626     2.8331    -1.5999 H       
  71 H71            8.6820    -7.2092     0.1049 H       
  72 H72           10.8648    -7.7741    -0.8776 H       
  73 H73           11.6041    -3.6490    -1.6707 H       
  74 H74           -2.8127     3.3189     0.6560 H       
  75 H75           -2.5706     2.7753     2.3335 H       
  76 H76           -1.2557     4.8235     2.8074 H       
  77 H77           -1.4978     5.3671     1.1299 H       
  78 H78           -2.8895     5.2322     2.2314 H       
@<TRIPOS>BOND
   1    1    2 1
   2    1    6 1
   3    1    7 am
   4    2    3 1
   5    2   41 1
   6    2   42 1
   7    3    4 1
   8    3   43 1
   9    3   44 1
  10    4    5 1
  11    4   10 am
  12    5    6 1
  13    5   45 1
  14    5   46 1
  15    6   47 1
  16    6   48 1
  17    7    8 2
  18    7    9 1
  19    9   39 1
  20   10   14 2
  21   10   11 1
  22   11   12 1
  23   11   19 1
  24   11   49 1
  25   12   13 1
  26   12   15 1
  27   12   16 1
  28   13   50 1
  29   13   51 1
  30   13   52 1
  31   15   53 1
  32   15   54 1
  33   15   55 1
  34   16   56 1
  35   16   57 1
  36   16   58 1
  37   17   18 2
  38   17   19 am
  39   17   29 1
  40   19   59 1
  41   20   21 1
  42   20   26 1
  43   20   27 1
  44   21   22 1
  45   21   29 2
  46   22   23 1
  47   22   60 1
  48   22   61 1
  49   23   24 1
  50   23   30 1
  51   24   25 1
  52   24   62 1
  53   24   63 1
  54   25   26 1
  55   25   64 1
  56   25   65 1
  57   26   66 1
  58   26   67 1
  59   27   28 2
  60   27   31 1
  61   28   29 1
  62   30   68 1
  63   30   69 1
  64   30   70 1
  65   31   32 ar
  66   31   36 ar
  67   32   33 ar
  68   32   37 1
  69   33   34 ar
  70   33   71 1
  71   34   35 ar
  72   34   72 1
  73   35   36 ar
  74   35   38 1
  75   36   73 1
  76   39   40 1
  77   39   74 1
  78   39   75 1
  79   40   76 1
  80   40   77 1
  81   40   78 1

#	End of record

