#	Name: ASD03090793
#	Creating user name:	WinNT
#	Creation time:	15. 06. 2019 20:29

#	Modifying user name:	WinNT
#	Modification time:	15. 06. 2019 20:29

#	Program:	/corina/corina34_cracker 3.40 0067  02.08.2006

@<TRIPOS>MOLECULE
ASD03090793
  32   33    0    0    0
SMALL
NO_CHARGES


@<TRIPOS>ATOM
   1 C1            -0.0483     1.3582    -0.6026 C.ar    
   2 N2            -0.0069     0.0508    -0.4394 N.ar    
   3 C3            -1.0979    -0.6653    -0.2470 C.ar    
   4 C4            -2.3432    -0.0649    -0.2090 C.ar    
   5 C5            -2.4330     1.3201    -0.3776 C.ar    
   6 C6            -1.2495     2.0394    -0.5727 C.ar    
   7 C7            -3.7444     2.0072    -0.3445 C.2     
   8 N8            -4.8728     1.2964    -0.1499 N.am    
   9 C9            -6.0664     1.9217    -0.1198 C.2     
  10 N10           -7.1948     1.2109     0.0748 N.am    
  11 C11           -8.4245     1.8690     0.1953 C.ar    
  12 C12           -8.7617     2.8798    -0.6945 C.ar    
  13 C13          -10.8579     3.1687     0.4356 C.ar    
  14 C14          -10.5241     2.1569     1.3193 C.ar    
  15 C15           -9.3108     1.5074     1.2015 C.ar    
  16 F16          -12.0452     3.8025     0.5528 F       
  17 C17           -9.9776     3.5282    -0.5737 C.ar    
  18 F18          -10.3072     4.5122    -1.4388 F       
  19 S19           -6.1491     3.6189    -0.3289 S.2     
  20 O20           -3.8031     3.2115    -0.4929 O.2     
  21 Cl21          -0.9689    -2.3841    -0.0394 Cl      
  22 C22            1.2333     2.1210    -0.8185 C.3     
  23 H23           -3.2327    -0.6569    -0.0518 H       
  24 H24           -1.2753     3.1108    -0.7065 H       
  25 H25           -4.8260     0.3348    -0.0314 H       
  26 H26           -7.1549     0.2434     0.1315 H       
  27 H27           -8.0754     3.1599    -1.4799 H       
  28 H28          -11.2131     1.8750     2.1018 H       
  29 H29           -9.0515     0.7181     1.8916 H       
  30 H30            1.4484     2.1753    -1.8857 H       
  31 H31            1.1282     3.1291    -0.4174 H       
  32 H32            2.0503     1.6105    -0.3087 H       
@<TRIPOS>BOND
   1    1    2 ar
   2    1   22 1
   3    1    6 ar
   4    2    3 ar
   5    3    4 ar
   6    3   21 1
   7    4    5 ar
   8    4   23 1
   9    5    6 ar
  10    5    7 1
  11    6   24 1
  12    7    8 am
  13    7   20 2
  14    8    9 am
  15    8   25 1
  16    9   10 am
  17    9   19 2
  18   10   11 1
  19   10   26 1
  20   11   12 ar
  21   11   15 ar
  22   12   17 ar
  23   12   27 1
  24   13   14 ar
  25   13   16 1
  26   13   17 ar
  27   14   15 ar
  28   14   28 1
  29   15   29 1
  30   17   18 1
  31   22   30 1
  32   22   31 1
  33   22   32 1

#	End of record

