#	Name: ASD03740042
#	Creating user name:	WinNT
#	Creation time:	15. 06. 2019 20:46

#	Modifying user name:	WinNT
#	Modification time:	15. 06. 2019 20:46

#	Program:	/corina/corina34_cracker 3.40 0067  02.08.2006

@<TRIPOS>MOLECULE
ASD03740042
  76   79    0    0    0
SMALL
NO_CHARGES


@<TRIPOS>ATOM
   1 N1            -0.0160     1.3257     0.0093 N.ar    
   2 C2             0.0021    -0.0041     0.0020 C.ar    
   3 N3             1.1228    -0.7011    -0.0124 N.ar    
   4 C4             2.3049    -0.0774    -0.0203 C.ar    
   5 C5             2.3371     1.3336    -0.0131 C.ar    
   6 C6             1.1044     2.0319     0.0024 C.ar    
   7 C7             3.5377    -0.7756    -0.0353 C.ar    
   8 N8             4.6580    -0.0693    -0.0418 N.ar    
   9 C9             4.6400     1.2604    -0.0346 C.ar    
  10 N10            3.5193     1.9574    -0.0201 N.ar    
  11 N11            1.0719     3.4122     0.0106 N.3     
  12 C12           -0.3109     3.9060     0.0263 C.3     
  13 C13           -0.3086     5.4285     0.1817 C.3     
  14 C14            0.4634     6.0543    -0.9832 C.3     
  15 C15            1.8854     5.4870    -1.0061 C.3     
  16 C16            1.8195     3.9629    -1.1271 C.3     
  17 N17           -1.2041    -0.6851     0.0103 N.pl3   
  18 C18           -1.2183    -2.1500     0.0026 C.3     
  19 C19           -2.4657     0.0595     0.0268 C.3     
  20 C20           -2.9191     0.3265    -1.4099 C.3     
  21 O21           -3.2206    -0.9138    -2.0525 O.3     
  22 C22           -1.2089    -2.6677     1.4423 C.3     
  23 O23           -2.4199    -2.2814     2.0953 O.3     
  24 N24            3.5702    -2.1559    -0.0424 N.3     
  25 C25            4.9531    -2.6496    -0.0577 C.3     
  26 C26            4.9536    -4.1737     0.0815 C.3     
  27 C27            4.1600    -4.7872    -1.0754 C.3     
  28 C28            2.7378    -4.2199    -1.0657 C.3     
  29 C29            2.8015    -2.6946    -1.1717 C.3     
  30 N30            5.8462     1.9415    -0.0420 N.pl3   
  31 C31            5.8603     3.4064    -0.0344 C.3     
  32 C32            7.1077     1.1969    -0.0576 C.3     
  33 C33            7.5337     0.9453    -1.5054 C.3     
  34 O34            7.8229     2.1924    -2.1404 O.3     
  35 C35            5.8784     3.9088     1.4106 C.3     
  36 O36            7.1016     3.5157     2.0362 O.3     
  37 H37           -0.8033     3.6371    -0.9082 H       
  38 H38           -0.8476     3.4565     0.8618 H       
  39 H39           -1.3347     5.7963     0.1777 H       
  40 H40            0.1713     5.6975     1.1227 H       
  41 H41           -0.0383     5.8179    -1.9215 H       
  42 H42            0.5047     7.1358    -0.8535 H       
  43 H43            2.4269     5.8967    -1.8588 H       
  44 H44            2.3999     5.7570    -0.0839 H       
  45 H45            2.8302     3.5547    -1.1293 H       
  46 H46            1.3172     3.6937    -2.0562 H       
  47 H47           -2.1168    -2.5020    -0.5043 H       
  48 H48           -0.3370    -2.5191    -0.5220 H       
  49 H49           -3.2259    -0.5250     0.5451 H       
  50 H50           -2.3211     1.0079     0.5443 H       
  51 H51           -3.8091     0.9558    -1.3990 H       
  52 H52           -2.1223     0.8334    -1.9541 H       
  53 H53           -3.5154    -0.8206    -2.9687 H       
  54 H54           -1.1298    -3.7549     1.4370 H       
  55 H55           -0.3577    -2.2441     1.9752 H       
  56 H56           -2.4828    -2.5766     3.0140 H       
  57 H57            5.4279    -2.3707    -0.9984 H       
  58 H58            5.5053    -2.2089     0.7723 H       
  59 H59            5.9794    -4.5412     0.0543 H       
  60 H60            4.4914    -4.4528     1.0283 H       
  61 H61            4.6441    -4.5408    -2.0203 H       
  62 H62            4.1211    -5.8700    -0.9565 H       
  63 H63            2.1805    -4.6206    -1.9125 H       
  64 H64            2.2407    -4.4998    -0.1369 H       
  65 H65            1.7910    -2.2865    -1.1507 H       
  66 H66            3.2864    -2.4154    -2.1071 H       
  67 H67            6.7489     3.7640    -0.5546 H       
  68 H68            4.9691     3.7810    -0.5381 H       
  69 H69            7.8777     1.7760     0.4523 H       
  70 H70            6.9730     0.2431     0.4525 H       
  71 H71            8.4236     0.3161    -1.5182 H       
  72 H72            6.7266     0.4441    -2.0397 H       
  73 H73            8.1002     2.1090    -3.0630 H       
  74 H74            5.7993     4.9959     1.4184 H       
  75 H75            5.0374     3.4794     1.9551 H       
  76 H76            7.1820     3.8011     2.9567 H       
@<TRIPOS>BOND
   1    1    2 ar
   2    1    6 ar
   3    2    3 ar
   4    2   17 1
   5    3    4 ar
   6    4    5 ar
   7    4    7 ar
   8    5    6 ar
   9    5   10 ar
  10    6   11 1
  11    7    8 ar
  12    7   24 1
  13    8    9 ar
  14    9   10 ar
  15    9   30 1
  16   11   12 1
  17   11   16 1
  18   12   13 1
  19   12   37 1
  20   12   38 1
  21   13   14 1
  22   13   39 1
  23   13   40 1
  24   14   15 1
  25   14   41 1
  26   14   42 1
  27   15   16 1
  28   15   43 1
  29   15   44 1
  30   16   45 1
  31   16   46 1
  32   17   18 1
  33   17   19 1
  34   18   22 1
  35   18   47 1
  36   18   48 1
  37   19   20 1
  38   19   49 1
  39   19   50 1
  40   20   21 1
  41   20   51 1
  42   20   52 1
  43   21   53 1
  44   22   23 1
  45   22   54 1
  46   22   55 1
  47   23   56 1
  48   24   25 1
  49   24   29 1
  50   25   26 1
  51   25   57 1
  52   25   58 1
  53   26   27 1
  54   26   59 1
  55   26   60 1
  56   27   28 1
  57   27   61 1
  58   27   62 1
  59   28   29 1
  60   28   63 1
  61   28   64 1
  62   29   65 1
  63   29   66 1
  64   30   31 1
  65   30   32 1
  66   31   35 1
  67   31   67 1
  68   31   68 1
  69   32   33 1
  70   32   69 1
  71   32   70 1
  72   33   34 1
  73   33   71 1
  74   33   72 1
  75   34   73 1
  76   35   36 1
  77   35   74 1
  78   35   75 1
  79   36   76 1

#	End of record

