#	Name: ASD09740021
#	Creating user name:	WinNT
#	Creation time:	15. 06. 2019 21:22

#	Modifying user name:	WinNT
#	Modification time:	15. 06. 2019 21:22

#	Program:	/corina/corina34_cracker 3.40 0067  02.08.2006

@<TRIPOS>MOLECULE
ASD09740021
  44   46    0    0    0
SMALL
NO_CHARGES


@<TRIPOS>ATOM
   1 N1            -0.0144     1.2087     0.0087 N.2     
   2 O2             0.0021    -0.0041     0.0020 O.3     
   3 C3             1.2069     1.6747    -0.0005 C.2     
   4 N4             2.0404     0.6103    -0.0141 N.2     
   5 C5             1.2640    -0.4445    -0.0124 C.2     
   6 C6             1.7097    -1.8841    -0.0239 C.3     
   7 C7             1.6044     3.1054     0.0030 C.ar    
   8 C8             0.6415     4.1175     0.0177 C.ar    
   9 C9             1.0544     5.4347     0.0209 C.ar    
  10 N10            2.3369     5.7421     0.0103 N.ar    
  11 C11            3.2771     4.8173    -0.0037 C.ar    
  12 C12            2.9514     3.4758    -0.0025 C.ar    
  13 C13            1.1831    -2.5910     1.2266 C.3     
  14 C14            1.1600    -2.5781    -1.2717 C.3     
  15 C15           -0.3688    -2.5176    -1.2573 C.3     
  16 C16           -0.8954    -3.2245    -0.0067 C.3     
  17 C17           -0.3457    -2.5305     1.2411 C.3     
  18 C18           -2.4241    -3.1640     0.0077 C.3     
  19 C19           -2.9555    -3.9766     1.1901 C.3     
  20 C20           -4.4843    -3.9161     1.2046 C.3     
  21 C21           -5.0157    -4.7287     2.3870 C.3     
  22 H22            2.7988    -1.9272    -0.0342 H       
  23 H23           -0.4104     3.8730     0.0260 H       
  24 H24            0.3174     6.2241     0.0318 H       
  25 H25            4.3157     5.1134    -0.0124 H       
  26 H26            3.7264     2.7238    -0.0136 H       
  27 H27            1.5054    -3.6322     1.2182 H       
  28 H28            1.5747    -2.0966     2.1156 H       
  29 H29            1.5351    -2.0745    -2.1626 H       
  30 H30            1.4823    -3.6194    -1.2801 H       
  31 H31           -0.6911    -1.4764    -1.2489 H       
  32 H32           -0.7604    -3.0121    -2.1462 H       
  33 H33           -0.5731    -4.2658    -0.0151 H       
  34 H34           -0.7208    -3.0341     2.1320 H       
  35 H35           -0.6680    -1.4893     1.2494 H       
  36 H36           -2.7458    -2.1271     0.1056 H       
  37 H37           -2.8130    -3.5788    -0.9223 H       
  38 H38           -2.6339    -5.0135     1.0922 H       
  39 H39           -2.5667    -3.5618     2.1201 H       
  40 H40           -4.8059    -2.8792     1.3025 H       
  41 H41           -4.8731    -4.3309     0.2746 H       
  42 H42           -4.6940    -5.7656     2.2891 H       
  43 H43           -4.6268    -4.3139     3.3170 H       
  44 H44           -6.1048    -4.6856     2.3973 H       
@<TRIPOS>BOND
   1    1    2 1
   2    1    3 2
   3    2    5 1
   4    3    4 1
   5    3    7 1
   6    4    5 2
   7    5    6 1
   8    6   13 1
   9    6   14 1
  10    6   22 1
  11    7    8 ar
  12    7   12 ar
  13    8    9 ar
  14    8   23 1
  15    9   10 ar
  16    9   24 1
  17   10   11 ar
  18   11   12 ar
  19   11   25 1
  20   12   26 1
  21   13   17 1
  22   13   27 1
  23   13   28 1
  24   14   15 1
  25   14   29 1
  26   14   30 1
  27   15   16 1
  28   15   31 1
  29   15   32 1
  30   16   17 1
  31   16   18 1
  32   16   33 1
  33   17   34 1
  34   17   35 1
  35   18   19 1
  36   18   36 1
  37   18   37 1
  38   19   20 1
  39   19   38 1
  40   19   39 1
  41   20   21 1
  42   20   40 1
  43   20   41 1
  44   21   42 1
  45   21   43 1
  46   21   44 1

#	End of record

