#	Name: ASD01148170
#	Creating user name:	WinNT
#	Creation time:	15. 06. 2019 19:02

#	Modifying user name:	WinNT
#	Modification time:	15. 06. 2019 19:02

#	Program:	/corina/corina34_cracker 3.40 0067  02.08.2006

@<TRIPOS>MOLECULE
ASD01148170
  50   52    0    0    0
SMALL
NO_CHARGES


@<TRIPOS>ATOM
   1 C1            -0.0167     1.3781     0.0096 C.ar    
   2 C2             0.0021    -0.0041     0.0020 C.ar    
   3 C3             1.2084    -0.6789    -0.0132 C.ar    
   4 C4             2.3960     0.0285    -0.0212 C.ar    
   5 C5             2.3773     1.4107    -0.0145 C.ar    
   6 C6             1.1710     2.0855     0.0021 C.ar    
   7 C7             3.6720     2.1819    -0.0228 C.3     
   8 O8             4.6967     1.4625    -0.7383 O.3     
   9 C9             3.5433     3.4713    -0.8686 C.3     
  10 C10            4.0468     3.0252    -2.2282 C.2     
  11 N11            4.6717     1.9053    -2.0808 N.2     
  12 C12            3.8547     3.7474    -3.5012 C.ar    
  13 C13            4.3733     3.2222    -4.6875 C.ar    
  14 C14            3.1495     4.9534    -3.5207 C.ar    
  15 C15            2.9706     5.6268    -4.7079 C.ar    
  16 C16            3.4940     5.1045    -5.8931 C.ar    
  17 C17            4.1941     3.8959    -5.8746 C.ar    
  18 C18            3.3013     5.8274    -7.1677 C.2     
  19 O19            2.6874     6.8764    -7.1847 O.2     
  20 N20            3.8063     5.3235    -8.3112 N.am    
  21 C21            4.1233     2.5042     1.4032 C.3     
  22 F22            4.2976     1.3140     2.1174 F       
  23 F23            5.3334     3.2050     1.3622 F       
  24 F24            3.1514     3.2884     2.0338 F       
  25 C25            3.6153     6.0401    -9.5746 C.3     
  26 C26            4.2715     5.2712   -10.6923 C.2     
  27 N27            4.2239     5.7434   -11.9538 N.am    
  28 O28            4.8424     4.2274   -10.4568 O.2     
  29 C29            4.8617     4.9959   -13.0403 C.3     
  30 C30            4.6623     5.7443   -14.3598 C.3     
  31 F31            5.2392     7.0154   -14.2669 F       
  32 F32            5.2714     5.0305   -15.3975 F       
  33 F33            3.2939     5.8712   -14.6217 F       
  34 H34           -0.9592     1.9054     0.0170 H       
  35 H35           -0.9258    -0.5567     0.0083 H       
  36 H36            1.2231    -1.7588    -0.0184 H       
  37 H37            3.3386    -0.4987    -0.0324 H       
  38 H38            1.1563     3.1654     0.0069 H       
  39 H39            2.5036     3.7931    -0.9276 H       
  40 H40            4.1725     4.2639    -0.4639 H       
  41 H41            4.9149     2.2880    -4.6732 H       
  42 H42            2.7445     5.3571    -2.6045 H       
  43 H43            2.4251     6.5588    -4.7231 H       
  44 H44            4.5988     3.4922    -6.7909 H       
  45 H45            4.2962     4.4864    -8.2976 H       
  46 H46            2.5492     6.1390    -9.7787 H       
  47 H47            4.0648     7.0304    -9.5022 H       
  48 H48            3.7672     6.5782   -12.1422 H       
  49 H49            5.9279     4.8970   -12.8363 H       
  50 H50            4.4123     4.0056   -13.1128 H       
@<TRIPOS>BOND
   1    1    2 ar
   2    1    6 ar
   3    1   34 1
   4    2    3 ar
   5    2   35 1
   6    3    4 ar
   7    3   36 1
   8    4    5 ar
   9    4   37 1
  10    5    6 ar
  11    5    7 1
  12    6   38 1
  13    7    8 1
  14    7    9 1
  15    7   21 1
  16    8   11 1
  17    9   10 1
  18    9   39 1
  19    9   40 1
  20   10   11 2
  21   10   12 1
  22   12   13 ar
  23   12   14 ar
  24   13   17 ar
  25   13   41 1
  26   14   15 ar
  27   14   42 1
  28   15   16 ar
  29   15   43 1
  30   16   17 ar
  31   16   18 1
  32   17   44 1
  33   18   19 2
  34   18   20 am
  35   20   25 1
  36   20   45 1
  37   21   22 1
  38   21   23 1
  39   21   24 1
  40   25   26 1
  41   25   46 1
  42   25   47 1
  43   26   28 2
  44   26   27 am
  45   27   29 1
  46   27   48 1
  47   29   30 1
  48   29   49 1
  49   29   50 1
  50   30   31 1
  51   30   32 1
  52   30   33 1

#	End of record

