#	Name: ASD01910832
#	Creating user name:	WinNT
#	Creation time:	15. 06. 2019 19:56

#	Modifying user name:	WinNT
#	Modification time:	15. 06. 2019 19:56

#	Program:	/corina/corina34_cracker 3.40 0067  02.08.2006

@<TRIPOS>MOLECULE
ASD01910832
  51   54    0    0    0
SMALL
NO_CHARGES


@<TRIPOS>ATOM
   1 C1             0.0588     1.7588    -0.3647 C.ar    
   2 C2             0.0022     0.3719    -0.3950 C.ar    
   3 C3             1.1885    -0.3384    -0.3504 C.ar    
   4 C4             2.3910     0.3569    -0.2772 C.ar    
   5 N5             2.4033     1.6809    -0.2500 N.ar    
   6 C6             1.2877     2.3841    -0.2917 C.ar    
   7 N7             3.5904    -0.3441    -0.2318 N.3     
   8 C8             4.7345     0.5743    -0.1571 C.3     
   9 C9             6.0176    -0.2312     0.0732 C.3     
  10 N10            6.1154    -1.2628    -0.9706 N.am    
  11 C11            4.9531    -2.1349    -1.1980 C.3     
  12 C12            3.7118    -1.2545    -1.3783 C.3     
  13 C13            7.2404    -1.4055    -1.6989 C.2     
  14 C14            7.3645    -2.5261    -2.6555 C.ar    
  15 O15            8.1529    -0.6130    -1.5694 O.2     
  16 C16            7.9768    -2.3254    -3.8936 C.ar    
  17 C17            8.0910    -3.3735    -4.7841 C.ar    
  18 C18            7.6005    -4.6232    -4.4540 C.ar    
  19 C19            6.9894    -4.8323    -3.2249 C.ar    
  20 C20            6.8751    -3.7893    -2.3215 C.ar    
  21 O21            6.5082    -6.0628    -2.9061 O.3     
  22 C22            6.6654    -7.0939    -3.8829 C.3     
  23 C23            6.0765    -8.3776    -3.3574 C.ar    
  24 C24            4.7479    -8.6757    -3.5935 C.ar    
  25 C25            4.2074    -9.8548    -3.1113 C.ar    
  26 C26            4.9975   -10.7344    -2.3932 C.ar    
  27 C27            6.3264   -10.4351    -2.1577 C.ar    
  28 C28            6.8670    -9.2597    -2.6441 C.ar    
  29 Cl29           2.5384   -10.2296    -3.4069 Cl      
  30 H30           -0.8489     2.3428    -0.4025 H       
  31 H31           -0.9466    -0.1408    -0.4516 H       
  32 H32            1.1811    -1.4182    -0.3717 H       
  33 H33            1.3363     3.4627    -0.2676 H       
  34 H34            4.8165     1.1298    -1.0913 H       
  35 H35            4.5888     1.2704     0.6689 H       
  36 H36            6.8812     0.4314     0.0152 H       
  37 H37            5.9814    -0.7050     1.0541 H       
  38 H38            5.1128    -2.7309    -2.0965 H       
  39 H39            4.8145    -2.7917    -0.3393 H       
  40 H40            2.8245    -1.8847    -1.4379 H       
  41 H41            3.8081    -0.6734    -2.2955 H       
  42 H42            8.3608    -1.3503    -4.1547 H       
  43 H43            8.5647    -3.2169    -5.7419 H       
  44 H44            7.6927    -5.4397    -5.1549 H       
  45 H45            6.4004    -3.9507    -1.3650 H       
  46 H46            6.1512    -6.8069    -4.8001 H       
  47 H47            7.7256    -7.2388    -4.0908 H       
  48 H48            4.1315    -7.9884    -4.1539 H       
  49 H49            4.5761   -11.6546    -2.0163 H       
  50 H50            6.9433   -11.1217    -1.5971 H       
  51 H51            7.9054    -9.0264    -2.4602 H       
@<TRIPOS>BOND
   1    1    2 ar
   2    1    6 ar
   3    1   30 1
   4    2    3 ar
   5    2   31 1
   6    3    4 ar
   7    3   32 1
   8    4    5 ar
   9    4    7 1
  10    5    6 ar
  11    6   33 1
  12    7    8 1
  13    7   12 1
  14    8    9 1
  15    8   34 1
  16    8   35 1
  17    9   10 1
  18    9   36 1
  19    9   37 1
  20   10   11 1
  21   10   13 am
  22   11   12 1
  23   11   38 1
  24   11   39 1
  25   12   40 1
  26   12   41 1
  27   13   14 1
  28   13   15 2
  29   14   16 ar
  30   14   20 ar
  31   16   17 ar
  32   16   42 1
  33   17   18 ar
  34   17   43 1
  35   18   19 ar
  36   18   44 1
  37   19   20 ar
  38   19   21 1
  39   20   45 1
  40   21   22 1
  41   22   23 1
  42   22   46 1
  43   22   47 1
  44   23   24 ar
  45   23   28 ar
  46   24   25 ar
  47   24   48 1
  48   25   26 ar
  49   25   29 1
  50   26   27 ar
  51   26   49 1
  52   27   28 ar
  53   27   50 1
  54   28   51 1

#	End of record

