#	Name: ASD04910252
#	Creating user name:	WinNT
#	Creation time:	15. 06. 2019 20:55

#	Modifying user name:	WinNT
#	Modification time:	15. 06. 2019 20:55

#	Program:	/corina/corina34_cracker 3.40 0067  02.08.2006

@<TRIPOS>MOLECULE
ASD04910252
  22   23    0    0    0
SMALL
NO_CHARGES


@<TRIPOS>ATOM
   1 C1            -0.0159     1.3186     0.0093 C.ar    
   2 N2             0.0021    -0.0041     0.0020 N.ar    
   3 C3             1.1466    -0.6665    -0.0125 C.ar    
   4 C4             2.3419     0.0477    -0.0201 C.ar    
   5 C5             2.2814     1.4388    -0.0121 C.ar    
   6 N6             1.0989     2.0307     0.0025 N.ar    
   7 N7             3.5733    -0.6161    -0.0351 N.pl3   
   8 C8            -2.4754     1.4026     0.0218 C.2     
   9 N9            -3.3773     2.3454     0.0317 N.2     
  10 C10           -2.7705     3.5419     0.0353 C.2     
  11 C11           -1.4399     3.3393     0.0273 C.2     
  12 N12           -1.2450     1.9811     0.0187 N.pl3   
  13 C13           -3.4600     4.8819     0.0460 C.3     
  14 F14           -4.8411     4.6948     0.1671 F       
  15 F15           -2.9950     5.6370     1.1280 F       
  16 F16           -3.1839     5.5579    -1.1474 F       
  17 H17            1.1541    -1.7464    -0.0180 H       
  18 H18            3.1877     2.0262    -0.0173 H       
  19 H19            3.6017    -1.5856    -0.0402 H       
  20 H20            4.3988    -0.1067    -0.0402 H       
  21 H21           -2.6730     0.3409     0.0209 H       
  22 H22           -0.6729     4.0997     0.0276 H       
@<TRIPOS>BOND
   1    1    2 ar
   2    1    6 ar
   3    1   12 1
   4    2    3 ar
   5    3    4 ar
   6    3   17 1
   7    4    5 ar
   8    4    7 1
   9    5    6 ar
  10    5   18 1
  11    7   19 1
  12    7   20 1
  13    8    9 2
  14    8   12 1
  15    8   21 1
  16    9   10 1
  17   10   11 2
  18   10   13 1
  19   11   12 1
  20   11   22 1
  21   13   14 1
  22   13   15 1
  23   13   16 1

#	End of record

