#	Name: ASD00843614
#	Creating user name:	WinNT
#	Creation time:	15. 06. 2019 18:47

#	Modifying user name:	WinNT
#	Modification time:	15. 06. 2019 18:47

#	Program:	/corina/corina34_cracker 3.40 0067  02.08.2006

@<TRIPOS>MOLECULE
ASD00843614
  87   92    0    0    0
SMALL
NO_CHARGES


@<TRIPOS>ATOM
   1 N1             0.9435     1.0782    -0.2054 N.ar    
   2 C2             1.1089    -0.2002    -0.5012 C.ar    
   3 C3             0.9507    -1.1782     0.4726 C.ar    
   4 C4             0.6168    -0.7981     1.7605 C.ar    
   5 C5             0.4522     0.5538     2.0303 C.ar    
   6 C6             0.6251     1.4713     1.0134 C.ar    
   7 C7             1.1396    -2.6337     0.1307 C.3     
   8 C8             0.7751    -3.5075     1.3120 C.2     
   9 C9             0.3007    -3.0088    -1.0925 C.3     
  10 C10           -1.1399    -2.6415    -0.8456 C.2     
  11 N11           -2.0852    -2.9797    -1.7446 N.am    
  12 O12           -1.4485    -2.0414     0.1622 O.2     
  13 C13           -3.4744    -2.5325    -1.5744 C.3     
  14 C14           -4.3964    -3.7545    -1.6323 C.3     
  15 C15           -4.1380    -4.5225    -2.9306 C.3     
  16 C16           -2.6875    -5.0101    -2.9568 C.3     
  17 C17           -1.7450    -3.7976    -2.9169 C.3     
  18 N18           -5.0437    -5.6766    -3.0051 N.3     
  19 C19           -4.9072    -6.3710    -4.2931 C.3     
  20 C20           -5.8064    -7.6094    -4.2998 C.3     
  21 N21           -7.1993    -7.2015    -4.0697 N.3     
  22 C22           -7.3358    -6.5072    -2.7817 C.3     
  23 C23           -6.4366    -5.2687    -2.7750 C.3     
  24 C24           -8.1051    -8.3556    -4.1442 C.3     
  25 O25           -0.3119    -3.5816     1.8449 O.2     
  26 N26            1.8818    -4.1859     1.6588 N.am    
  27 C27            2.6005    -2.9351    -0.1129 C.ar    
  28 C28            2.9708    -3.8731     0.8426 C.ar    
  29 C29            3.5105    -2.4695    -1.0354 C.ar    
  30 C30            5.1961    -3.8745    -0.0688 C.ar    
  31 C31            4.2827    -4.3412     0.8569 C.ar    
  32 F32            6.4668    -4.3328    -0.0497 F       
  33 C33            1.5366    -6.8510     2.2529 C.ar    
  34 C34            2.5332    -7.6731     1.7602 C.ar    
  35 C35            0.2194    -7.2708     2.2358 C.ar    
  36 C36           -0.1042    -8.5134     1.7261 C.ar    
  37 C37            0.8939    -9.3402     1.2312 C.ar    
  38 C38            2.2148    -8.9164     1.2490 C.ar    
  39 O39            0.5782   -10.5632     0.7297 O.3     
  40 H40            3.5614    -7.3429     1.7747 H       
  41 C41            1.6569   -11.3606     0.2373 C.3     
  42 C42            4.8144    -2.9376    -1.0171 C.ar    
  43 F43            5.7106    -2.4833    -1.9203 F       
  44 O44            1.4357    -0.5599    -1.7680 O.3     
  45 C45            1.5372     0.4880    -2.7342 C.3     
  46 C46            2.0122    -0.0922    -4.0678 C.3     
  47 F47            3.2232    -0.7665    -3.8781 F       
  48 F48            1.0525    -0.9855    -4.5560 F       
  49 S49            1.9469    -5.2685     2.9103 S.o2    
  50 O50            3.3091    -5.3402     3.3084 O.2     
  51 O51            0.8949    -4.9182     3.7990 O.2     
  52 H52            0.4870    -1.5362     2.5381 H       
  53 H53            0.1913     0.8841     3.0249 H       
  54 H54            0.4986     2.5241     1.2180 H       
  55 H55            0.6688    -2.4691    -1.9650 H       
  56 H56            0.3767    -4.0816    -1.2702 H       
  57 H57           -3.5833    -2.0380    -0.6092 H       
  58 H58           -3.7357    -1.8394    -2.3740 H       
  59 H59           -4.1949    -4.4031    -0.7797 H       
  60 H60           -5.4358    -3.4277    -1.6037 H       
  61 H61           -4.3158    -3.8660    -3.7824 H       
  62 H62           -2.5021    -5.6468    -2.0918 H       
  63 H63           -2.5107    -5.5769    -3.8709 H       
  64 H64           -1.8668    -3.2100    -3.8268 H       
  65 H65           -0.7132    -4.1394    -2.8354 H       
  66 H66           -5.2042    -5.7015    -5.1004 H       
  67 H67           -3.8698    -6.6740    -4.4347 H       
  68 H68           -5.7287    -8.1100    -5.2649 H       
  69 H69           -5.4920    -8.2914    -3.5098 H       
  70 H70           -8.3732    -6.2041    -2.6401 H       
  71 H71           -7.0388    -7.1766    -1.9744 H       
  72 H72           -6.5143    -4.7681    -1.8099 H       
  73 H73           -6.7510    -4.5867    -3.5651 H       
  74 H74           -7.8252    -9.0867    -3.3857 H       
  75 H75           -9.1292    -8.0256    -3.9703 H       
  76 H76           -8.0328    -8.8110    -5.1319 H       
  77 H77            3.2081    -1.7404    -1.7726 H       
  78 H78            4.5865    -5.0707     1.5931 H       
  79 H79           -0.5572    -6.6270     2.6215 H       
  80 H80           -1.1332    -8.8410     1.7133 H       
  81 H81            2.9936    -9.5583     0.8646 H       
  82 H82            1.2680   -12.3091    -0.1331 H       
  83 H83            2.1588   -10.8323    -0.5733 H       
  84 H84            2.3668   -11.5487     1.0428 H       
  85 H85            0.5612     0.9547    -2.8680 H       
  86 H86            2.2521     1.2341    -2.3873 H       
  87 H87            2.1548     0.7157    -4.7854 H       
@<TRIPOS>BOND
   1    1    2 ar
   2    1    6 ar
   3    2    3 ar
   4    2   44 1
   5    3    4 ar
   6    3    7 1
   7    4    5 ar
   8    4   52 1
   9    5    6 ar
  10    5   53 1
  11    6   54 1
  12    7    8 1
  13    7    9 1
  14    7   27 1
  15    8   25 2
  16    8   26 am
  17    9   10 1
  18    9   55 1
  19    9   56 1
  20   10   11 am
  21   10   12 2
  22   11   13 1
  23   11   17 1
  24   13   14 1
  25   13   57 1
  26   13   58 1
  27   14   15 1
  28   14   59 1
  29   14   60 1
  30   15   16 1
  31   15   18 1
  32   15   61 1
  33   16   17 1
  34   16   62 1
  35   16   63 1
  36   17   64 1
  37   17   65 1
  38   18   19 1
  39   18   23 1
  40   19   20 1
  41   19   66 1
  42   19   67 1
  43   20   21 1
  44   20   68 1
  45   20   69 1
  46   21   22 1
  47   21   24 1
  48   22   23 1
  49   22   70 1
  50   22   71 1
  51   23   72 1
  52   23   73 1
  53   24   74 1
  54   24   75 1
  55   24   76 1
  56   26   49 am
  57   26   28 1
  58   27   28 ar
  59   27   29 ar
  60   28   31 ar
  61   29   42 ar
  62   29   77 1
  63   30   31 ar
  64   30   32 1
  65   30   42 ar
  66   31   78 1
  67   33   34 ar
  68   33   35 ar
  69   33   49 1
  70   34   40 1
  71   34   38 ar
  72   35   36 ar
  73   35   79 1
  74   36   37 ar
  75   36   80 1
  76   37   38 ar
  77   37   39 1
  78   38   81 1
  79   39   41 1
  80   41   82 1
  81   41   83 1
  82   41   84 1
  83   42   43 1
  84   44   45 1
  85   45   46 1
  86   45   85 1
  87   45   86 1
  88   46   47 1
  89   46   48 1
  90   46   87 1
  91   49   50 2
  92   49   51 2

#	End of record

