#	Name: ASD01208704
#	Creating user name:	WinNT
#	Creation time:	15. 06. 2019 19:10

#	Modifying user name:	WinNT
#	Modification time:	15. 06. 2019 19:10

#	Program:	/corina/corina34_cracker 3.40 0067  02.08.2006

@<TRIPOS>MOLECULE
ASD01208704
  58   62    0    0    0
SMALL
NO_CHARGES


@<TRIPOS>ATOM
   1 C1            -0.5147     1.4605     1.4820 C.2     
   2 C2            -0.3539     0.1492     0.8188 C.ar    
   3 C3             0.8823    -0.2185     0.2855 C.ar    
   4 C4             1.0286    -1.4479    -0.3350 C.ar    
   5 C5            -0.0518    -2.3136    -0.4274 C.ar    
   6 C6            -1.2825    -1.9523     0.1014 C.ar    
   7 C7            -1.4361    -0.7268     0.7293 C.ar    
   8 O8             0.4307     2.2203     1.5634 O.2     
   9 N9            -1.7108     1.8159     1.9914 N.am    
  10 S10           -3.3164     3.6257     3.3026 S.3     
  11 C11           -1.8618     3.0480     2.6145 C.2     
  12 N12           -0.9201     3.9272     2.7595 N.2     
  13 C13           -1.2396     5.0481     3.3789 C.2     
  14 C14           -2.5115     5.1195     3.7761 C.2     
  15 O15           -2.3376    -2.8036     0.0078 O.3     
  16 C16           -3.1549    -2.6900    -1.0709 C.ar    
  17 C17           -4.3049    -3.4649    -1.1535 C.ar    
  18 C18           -5.1367    -3.3524    -2.2464 C.ar    
  19 C19           -4.8226    -2.4578    -3.2714 C.ar    
  20 C20           -3.6661    -1.6803    -3.1846 C.ar    
  21 C21           -2.8418    -1.7950    -2.0862 C.ar    
  22 O22           -5.5323    -1.5167    -5.5019 O.3     
  23 C23           -5.7116    -2.3345    -4.4453 C.2     
  24 N24           -6.8232    -3.0010    -4.6537 N.2     
  25 N25           -7.3323    -2.6361    -5.7776 N.2     
  26 C26           -6.5726    -1.7301    -6.3266 C.2     
  27 C27           -6.8164    -1.0457    -7.6469 C.3     
  28 O28            2.2320    -1.8067    -0.8546 O.3     
  29 C29            2.3121    -3.0888    -1.4806 C.3     
  30 C30            3.7331    -3.3145    -2.0010 C.3     
  31 C31            3.8674    -4.7394    -2.5660 C.3     
  32 C32            4.2397    -4.5896    -4.0555 C.3     
  33 C33            4.8885    -3.1860    -4.1456 C.3     
  34 C34            4.0284    -2.3485    -3.1670 C.3     
  35 H35            1.7236     0.4550     0.3563 H       
  36 H36            0.0656    -3.2713    -0.9126 H       
  37 H37           -2.3933    -0.4480     1.1446 H       
  38 H38           -2.4661     1.2112     1.9229 H       
  39 H39           -0.5291     5.8432     3.5503 H       
  40 H40           -2.9678     5.9483     4.2970 H       
  41 H41           -4.5472    -4.1566    -0.3602 H       
  42 H42           -6.0302    -3.9557    -2.3102 H       
  43 H43           -3.4196    -0.9876    -3.9756 H       
  44 H44           -1.9490    -1.1913    -2.0165 H       
  45 H45           -6.3434    -1.6175    -8.4453 H       
  46 H46           -7.8889    -0.9830    -7.8311 H       
  47 H47           -6.3932    -0.0416    -7.6192 H       
  48 H48            2.0636    -3.8635    -0.7552 H       
  49 H49            1.6093    -3.1314    -2.3127 H       
  50 H50            4.4534    -3.1620    -1.1973 H       
  51 H51            4.6535    -5.2782    -2.0370 H       
  52 H52            2.9203    -5.2702    -2.4694 H       
  53 H53            4.9533    -5.3593    -4.3497 H       
  54 H54            3.3467    -4.6378    -4.6787 H       
  55 H55            5.9271    -3.2187    -3.8163 H       
  56 H56            4.8157    -2.7911    -5.1589 H       
  57 H57            3.1013    -2.0347    -3.6466 H       
  58 H58            4.5877    -1.4826    -2.8126 H       
@<TRIPOS>BOND
   1    1    2 1
   2    1    8 2
   3    1    9 am
   4    2    3 ar
   5    2    7 ar
   6    3    4 ar
   7    3   35 1
   8    4    5 ar
   9    4   28 1
  10    5    6 ar
  11    5   36 1
  12    6    7 ar
  13    6   15 1
  14    7   37 1
  15    9   11 1
  16    9   38 1
  17   10   11 1
  18   10   14 1
  19   11   12 2
  20   12   13 1
  21   13   14 2
  22   13   39 1
  23   14   40 1
  24   15   16 1
  25   16   17 ar
  26   16   21 ar
  27   17   18 ar
  28   17   41 1
  29   18   19 ar
  30   18   42 1
  31   19   20 ar
  32   19   23 1
  33   20   21 ar
  34   20   43 1
  35   21   44 1
  36   22   23 1
  37   22   26 1
  38   23   24 2
  39   24   25 1
  40   25   26 2
  41   26   27 1
  42   27   45 1
  43   27   46 1
  44   27   47 1
  45   28   29 1
  46   29   30 1
  47   29   48 1
  48   29   49 1
  49   30   31 1
  50   30   34 1
  51   30   50 1
  52   31   32 1
  53   31   51 1
  54   31   52 1
  55   32   33 1
  56   32   53 1
  57   32   54 1
  58   33   34 1
  59   33   55 1
  60   33   56 1
  61   34   57 1
  62   34   58 1

#	End of record

