#	Name: ASD03740124
#	Creating user name:	WinNT
#	Creation time:	15. 06. 2019 20:46

#	Modifying user name:	WinNT
#	Modification time:	15. 06. 2019 20:46

#	Program:	/corina/corina34_cracker 3.40 0067  02.08.2006

@<TRIPOS>MOLECULE
ASD03740124
  42   45    0    0    0
SMALL
NO_CHARGES


@<TRIPOS>ATOM
   1 C1            -0.0167     1.3815     0.0096 C.ar    
   2 C2             0.0021    -0.0041     0.0020 C.ar    
   3 C3             1.2003    -0.6897    -0.0132 C.ar    
   4 C4             2.3987     0.0098    -0.0209 C.ar    
   5 C5             2.3803     1.4148    -0.0132 C.ar    
   6 C6             1.1644     2.0940     0.0022 C.ar    
   7 N7             3.7265    -0.3879    -0.0358 N.pl3   
   8 N8             4.5509     0.7417    -0.0376 N.am    
   9 C9             3.7874     1.8530    -0.0243 C.2     
  10 C10            4.1938    -1.7764    -0.0477 C.3     
  11 C11            4.2496    -2.2997     1.3644 C.ar    
  12 C12            3.1438    -2.9196     1.9158 C.ar    
  13 C13            3.1944    -3.3998     3.2108 C.ar    
  14 C14            4.3521    -3.2600     3.9554 C.ar    
  15 C15            5.4585    -2.6396     3.4030 C.ar    
  16 C16            5.4085    -2.1648     2.1059 C.ar    
  17 O17            4.1854     3.0020    -0.0219 O.2     
  18 Cl18           4.4163    -3.8624     5.5822 Cl      
  19 C19            6.0156     0.7209    -0.0517 C.3     
  20 C20            6.5061     0.8452    -1.4713 C.ar    
  21 C21            6.7489     2.0943    -2.0115 C.ar    
  22 C22            6.7184    -0.2901    -2.2308 C.ar    
  23 C23            7.1686    -0.1768    -3.5327 C.ar    
  24 C24            7.4064     1.0732    -4.0757 C.ar    
  25 C25            7.1988     2.2090    -3.3134 C.ar    
  26 Cl26           7.9725     1.2164    -5.7106 Cl      
  27 H27           -0.9607     1.9061     0.0170 H       
  28 H28           -0.9285    -0.5522     0.0084 H       
  29 H29            1.2050    -1.7697    -0.0186 H       
  30 H30            1.1464     3.1738     0.0078 H       
  31 H31            3.5065    -2.3860    -0.6342 H       
  32 H32            5.1884    -1.8212    -0.4914 H       
  33 H33            2.2401    -3.0284     1.3346 H       
  34 H34            2.3304    -3.8838     3.6416 H       
  35 H35            6.3625    -2.5302     3.9838 H       
  36 H36            6.2721    -1.6804     1.6747 H       
  37 H37            6.3966     1.5543     0.5386 H       
  38 H38            6.3698    -0.2178     0.3742 H       
  39 H39            6.5868     2.9808    -1.4163 H       
  40 H40            6.5327    -1.2659    -1.8068 H       
  41 H41            7.3351    -1.0639    -4.1257 H       
  42 H42            7.3839     3.1851    -3.7369 H       
@<TRIPOS>BOND
   1    1    2 ar
   2    1    6 ar
   3    1   27 1
   4    2    3 ar
   5    2   28 1
   6    3    4 ar
   7    3   29 1
   8    4    5 ar
   9    4    7 1
  10    5    6 ar
  11    5    9 1
  12    6   30 1
  13    7    8 1
  14    7   10 1
  15    8    9 am
  16    8   19 1
  17    9   17 2
  18   10   11 1
  19   10   31 1
  20   10   32 1
  21   11   12 ar
  22   11   16 ar
  23   12   13 ar
  24   12   33 1
  25   13   14 ar
  26   13   34 1
  27   14   15 ar
  28   14   18 1
  29   15   16 ar
  30   15   35 1
  31   16   36 1
  32   19   20 1
  33   19   37 1
  34   19   38 1
  35   20   21 ar
  36   20   22 ar
  37   21   25 ar
  38   21   39 1
  39   22   23 ar
  40   22   40 1
  41   23   24 ar
  42   23   41 1
  43   24   25 ar
  44   24   26 1
  45   25   42 1

#	End of record

