#	Name: ASD04880692
#	Creating user name:	WinNT
#	Creation time:	15. 06. 2019 20:53

#	Modifying user name:	WinNT
#	Modification time:	15. 06. 2019 20:53

#	Program:	/corina/corina34_cracker 3.40 0067  02.08.2006

@<TRIPOS>MOLECULE
ASD04880692
  58   61    0    0    0
SMALL
NO_CHARGES


@<TRIPOS>ATOM
   1 C1            -0.0187     1.5270     0.0104 C.3     
   2 C2            -0.6264     1.8833    -1.3424 C.2     
   3 N3            -1.0513     0.8227    -1.9111 N.2     
   4 N4            -0.7721    -0.3498    -1.2048 N.am    
   5 C5             0.0021    -0.0041     0.0020 C.3     
   6 C6            -1.1484    -1.5923    -1.5667 C.2     
   7 C7            -1.9400    -1.8015    -2.8319 C.3     
   8 O8            -0.8498    -2.5424    -0.8739 O.2     
   9 O9            -2.1159    -3.2015    -3.0577 O.3     
  10 C10           -1.0789    -3.7991    -3.8385 C.3     
  11 C11           -3.2878    -1.1413    -2.6960 C.ar    
  12 C12           -3.5119     0.0968    -3.2684 C.ar    
  13 C13           -4.7482     0.7024    -3.1438 C.ar    
  14 C14           -5.7607     0.0696    -2.4471 C.ar    
  15 C15           -5.5370    -1.1689    -1.8755 C.ar    
  16 C16           -4.3019    -1.7765    -2.0038 C.ar    
  17 C17            1.4369    -0.5232    -0.1107 C.3     
  18 C18           -0.6769    -0.5594     1.2556 C.3     
  19 C19           -0.5427     3.2710    -1.8391 C.ar    
  20 C20            0.3941     4.1158    -1.2301 C.ar    
  21 C21            1.2718     3.6546    -0.1015 C.3     
  22 C22            1.3845     2.1351     0.0003 C.3     
  23 C23           -1.3562     3.7260    -2.8702 C.ar    
  24 C24           -1.2340     5.0327    -3.3112 C.ar    
  25 C25           -0.2969     5.8746    -2.7162 C.ar    
  26 C26            0.5080     5.4176    -1.6853 C.ar    
  27 O27           -2.0235     5.4914    -4.3190 O.3     
  28 C28           -2.9605     4.5697    -4.8799 C.3     
  29 C29            0.8081     7.9690    -2.5009 C.3     
  30 O30           -0.1707     7.1562    -3.1516 O.3     
  31 H31           -0.6100     1.9106     0.8419 H       
  32 H32           -1.4034    -1.3624    -3.6729 H       
  33 H33           -1.0371    -3.3184    -4.8159 H       
  34 H34           -0.1229    -3.6730    -3.3303 H       
  35 H35           -1.2857    -4.8619    -3.9648 H       
  36 H36           -2.7208     0.5912    -3.8127 H       
  37 H37           -4.9230     1.6701    -3.5904 H       
  38 H38           -6.7265     0.5431    -2.3492 H       
  39 H39           -6.3279    -1.6632    -1.3309 H       
  40 H40           -4.1282    -2.7458    -1.5604 H       
  41 H41            2.0199    -0.1671     0.7386 H       
  42 H42            1.4296    -1.6132    -0.1150 H       
  43 H43            1.8833    -0.1592    -1.0361 H       
  44 H44           -1.7124    -0.2208     1.2882 H       
  45 H45           -0.6515    -1.6488     1.2302 H       
  46 H46           -0.1504    -0.2043     2.1415 H       
  47 H47            2.2696     4.0699    -0.2432 H       
  48 H48            0.8668     4.0382     0.8349 H       
  49 H49            1.9033     1.8693     0.9213 H       
  50 H50            1.9409     1.7530    -0.8555 H       
  51 H51           -2.0787     3.0644    -3.3248 H       
  52 H52            1.2292     6.0823    -1.2333 H       
  53 H53           -3.5250     5.0621    -5.6718 H       
  54 H54           -2.4259     3.7143    -5.2928 H       
  55 H55           -3.6453     4.2298    -4.1030 H       
  56 H56            0.8054     8.9651    -2.9433 H       
  57 H57            0.5720     8.0422    -1.4393 H       
  58 H58            1.7935     7.5195    -2.6237 H       
@<TRIPOS>BOND
   1    1    5 1
   2    1   22 1
   3    1    2 1
   4    1   31 1
   5    2    3 2
   6    2   19 1
   7    3    4 1
   8    4    5 1
   9    4    6 am
  10    5   17 1
  11    5   18 1
  12    6    8 2
  13    6    7 1
  14    7    9 1
  15    7   11 1
  16    7   32 1
  17    9   10 1
  18   10   33 1
  19   10   34 1
  20   10   35 1
  21   11   12 ar
  22   11   16 ar
  23   12   13 ar
  24   12   36 1
  25   13   14 ar
  26   13   37 1
  27   14   15 ar
  28   14   38 1
  29   15   16 ar
  30   15   39 1
  31   16   40 1
  32   17   41 1
  33   17   42 1
  34   17   43 1
  35   18   44 1
  36   18   45 1
  37   18   46 1
  38   19   23 ar
  39   19   20 ar
  40   20   21 1
  41   20   26 ar
  42   21   22 1
  43   21   47 1
  44   21   48 1
  45   22   49 1
  46   22   50 1
  47   23   24 ar
  48   23   51 1
  49   24   25 ar
  50   24   27 1
  51   25   26 ar
  52   25   30 1
  53   26   52 1
  54   27   28 1
  55   28   53 1
  56   28   54 1
  57   28   55 1
  58   29   30 1
  59   29   56 1
  60   29   57 1
  61   29   58 1

#	End of record

