#	Name: ASD05842027
#	Creating user name:	WinNT
#	Creation time:	15. 06. 2019 21:03

#	Modifying user name:	WinNT
#	Modification time:	15. 06. 2019 21:03

#	Program:	/corina/corina34_cracker 3.40 0067  02.08.2006

@<TRIPOS>MOLECULE
ASD05842027
  55   57    0    0    0
SMALL
NO_CHARGES


@<TRIPOS>ATOM
   1 C1             3.0941     1.6902     0.6253 C.ar    
   2 C2             3.9868     2.6508     1.0629 C.ar    
   3 C3             5.2520     2.2803     1.4786 C.ar    
   4 C4             5.6245     0.9492     1.4571 C.ar    
   5 C5             4.7315    -0.0114     1.0203 C.ar    
   6 C6             3.4648     0.3586     0.6088 C.ar    
   7 C7             1.7148     2.0941     0.1721 C.3     
   8 N8             1.7554     2.4657    -1.2486 N.3     
   9 C9             2.5740     3.6679    -1.4550 C.3     
  10 C10            1.8988     4.8660    -0.7845 C.3     
  11 C11            2.7386     6.0993    -0.9964 C.ar    
  12 C12            2.5286     6.8963    -2.1062 C.ar    
  13 C13            3.2989     8.0275    -2.3005 C.ar    
  14 C14            4.2789     8.3621    -1.3848 C.ar    
  15 C15            4.4883     7.5656    -0.2745 C.ar    
  16 C16            3.7150     6.4367    -0.0779 C.ar    
  17 C17            1.1559     0.3138    -2.2049 C.2     
  18 C18            2.2420     1.3499    -2.0709 C.3     
  19 O19            0.0562     0.5294    -1.7531 O.2     
  20 O20            1.4103    -0.8486    -2.8261 O.3     
  21 C21            0.3171    -1.7998    -2.9183 C.3     
  22 C22            0.7933    -3.0544    -3.6532 C.3     
  23 C23           -0.3414    -4.0415    -3.7489 C.ar    
  24 C24           -1.1952    -4.0100    -4.8356 C.ar    
  25 C25           -2.2360    -4.9155    -4.9234 C.ar    
  26 C26           -2.4227    -5.8528    -3.9247 C.ar    
  27 C27           -1.5683    -5.8850    -2.8385 C.ar    
  28 C28           -0.5249    -4.9823    -2.7528 C.ar    
  29 H29            3.6958     3.6907     1.0797 H       
  30 H30            5.9496     3.0308     1.8198 H       
  31 H31            6.6132     0.6599     1.7812 H       
  32 H32            5.0227    -1.0513     1.0032 H       
  33 H33            2.7672    -0.3919     0.2676 H       
  34 H34            1.0281     1.2589     0.3097 H       
  35 H35            1.3738     2.9457     0.7608 H       
  36 H36            3.5607     3.5152    -1.0176 H       
  37 H37            2.6758     3.8591    -2.5233 H       
  38 H38            0.9122     5.0187    -1.2219 H       
  39 H39            1.7970     4.6748     0.2837 H       
  40 H40            1.7629     6.6349    -2.8216 H       
  41 H41            3.1353     8.6498    -3.1679 H       
  42 H42            4.8812     9.2455    -1.5369 H       
  43 H43            5.2542     7.8268     0.4408 H       
  44 H44            3.8786     5.8145     0.7895 H       
  45 H45            2.5157     1.7193    -3.0592 H       
  46 H46            3.1148     0.9021    -1.5959 H       
  47 H47           -0.0150    -2.0699    -1.9159 H       
  48 H48           -0.5107    -1.3498    -3.4663 H       
  49 H49            1.1253    -2.7842    -4.6557 H       
  50 H50            1.6211    -3.5043    -3.1052 H       
  51 H51           -1.0493    -3.2776    -5.6159 H       
  52 H52           -2.9035    -4.8903    -5.7721 H       
  53 H53           -3.2363    -6.5598    -3.9929 H       
  54 H54           -1.7144    -6.6171    -2.0580 H       
  55 H55            0.1448    -5.0097    -1.9060 H       
@<TRIPOS>BOND
   1    1    2 ar
   2    1    7 1
   3    1    6 ar
   4    2    3 ar
   5    2   29 1
   6    3    4 ar
   7    3   30 1
   8    4    5 ar
   9    4   31 1
  10    5    6 ar
  11    5   32 1
  12    6   33 1
  13    7    8 1
  14    7   34 1
  15    7   35 1
  16    8    9 1
  17    8   18 1
  18    9   10 1
  19    9   36 1
  20    9   37 1
  21   10   11 1
  22   10   38 1
  23   10   39 1
  24   11   12 ar
  25   11   16 ar
  26   12   13 ar
  27   12   40 1
  28   13   14 ar
  29   13   41 1
  30   14   15 ar
  31   14   42 1
  32   15   16 ar
  33   15   43 1
  34   16   44 1
  35   17   18 1
  36   17   19 2
  37   17   20 1
  38   18   45 1
  39   18   46 1
  40   20   21 1
  41   21   22 1
  42   21   47 1
  43   21   48 1
  44   22   23 1
  45   22   49 1
  46   22   50 1
  47   23   24 ar
  48   23   28 ar
  49   24   25 ar
  50   24   51 1
  51   25   26 ar
  52   25   52 1
  53   26   27 ar
  54   26   53 1
  55   27   28 ar
  56   27   54 1
  57   28   55 1

#	End of record

