#	Name: ASD01880069
#	Creating user name:	WinNT
#	Creation time:	15. 06. 2019 19:39

#	Modifying user name:	WinNT
#	Modification time:	15. 06. 2019 19:39

#	Program:	/corina/corina34_cracker 3.40 0067  02.08.2006

@<TRIPOS>MOLECULE
ASD01880069
  49   51    0    0    0
SMALL
NO_CHARGES


@<TRIPOS>ATOM
   1 C1            -0.0167     1.3776     0.0096 C.ar    
   2 C2             0.0021    -0.0041     0.0020 C.ar    
   3 N3             1.1443    -0.6632    -0.0120 N.ar    
   4 C4             2.3054    -0.0383    -0.0197 C.ar    
   5 C5             2.3651     1.3426    -0.0133 C.ar    
   6 C6             1.1850     2.0698     0.0019 C.ar    
   7 C7             3.6964     2.0488    -0.0217 C.3     
   8 N8             4.1154     2.2846    -1.4056 N.am    
   9 C9             3.6623     3.4152    -2.0895 C.ar    
  10 S10            5.1261     1.2108    -2.1591 S.o2    
  11 C11            4.0114     0.0118    -2.9404 C.3     
  12 C12            4.8281    -1.1555    -3.4983 C.3     
  13 O13            5.7918     1.9885    -3.1445 O.2     
  14 O14            5.8466     0.6025    -1.0960 O.2     
  15 C15            3.2761     4.5445    -1.3835 C.ar    
  16 C16            2.8255     5.6696    -2.0701 C.ar    
  17 C17            2.7654     5.6540    -3.4628 C.ar    
  18 C18            3.1519     4.5255    -4.1583 C.ar    
  19 C19            3.6040     3.4108    -3.4784 C.ar    
  20 C20            2.4103     6.8806    -1.3215 C.2     
  21 C21            0.9979     7.3307    -1.3640 C.ar    
  22 C22            0.6699     8.5508    -1.9527 C.ar    
  23 C23           -0.6462     8.9646    -1.9894 C.ar    
  24 C24           -1.6389     8.1710    -1.4433 C.ar    
  25 C25           -1.3192     6.9594    -0.8574 C.ar    
  26 C26           -0.0073     6.5325    -0.8205 C.ar    
  27 C27            3.3101     7.5673    -0.6077 C.2     
  28 H28           -0.9553     1.9117     0.0170 H       
  29 H29           -0.9295    -0.5505     0.0080 H       
  30 H30            3.2203    -0.6121    -0.0308 H       
  31 H31            1.2010     3.1496     0.0072 H       
  32 H32            3.6050     3.0027     0.4978 H       
  33 H33            4.4390     1.4303     0.4824 H       
  34 H34            3.3028    -0.3611    -2.2008 H       
  35 H35            3.4683     0.4960    -3.7521 H       
  36 H36            5.5366    -0.7826    -4.2378 H       
  37 H37            5.3711    -1.6397    -2.6866 H       
  38 H38            4.1583    -1.8760    -3.9678 H       
  39 H39            3.3241     4.5515    -0.3046 H       
  40 H40            2.4161     6.5246    -3.9978 H       
  41 H41            3.1045     4.5156    -5.2372 H       
  42 H42            3.9051     2.5307    -4.0272 H       
  43 H43            1.4442     9.1714    -2.3791 H       
  44 H44           -0.9015     9.9099    -2.4450 H       
  45 H45           -2.6675     8.4988    -1.4742 H       
  46 H46           -2.0983     6.3440    -0.4323 H       
  47 H47            0.2411     5.5862    -0.3631 H       
  48 H48            3.0077     8.4492    -0.0625 H       
  49 H49            4.3387     7.2395    -0.5767 H       
@<TRIPOS>BOND
   1    1    2 ar
   2    1    6 ar
   3    1   28 1
   4    2    3 ar
   5    2   29 1
   6    3    4 ar
   7    4    5 ar
   8    4   30 1
   9    5    6 ar
  10    5    7 1
  11    6   31 1
  12    7    8 1
  13    7   32 1
  14    7   33 1
  15    8    9 1
  16    8   10 am
  17    9   15 ar
  18    9   19 ar
  19   10   11 1
  20   10   13 2
  21   10   14 2
  22   11   12 1
  23   11   34 1
  24   11   35 1
  25   12   36 1
  26   12   37 1
  27   12   38 1
  28   15   16 ar
  29   15   39 1
  30   16   17 ar
  31   16   20 1
  32   17   18 ar
  33   17   40 1
  34   18   19 ar
  35   18   41 1
  36   19   42 1
  37   20   21 1
  38   20   27 2
  39   21   22 ar
  40   21   26 ar
  41   22   23 ar
  42   22   43 1
  43   23   24 ar
  44   23   44 1
  45   24   25 ar
  46   24   45 1
  47   25   26 ar
  48   25   46 1
  49   26   47 1
  50   27   48 1
  51   27   49 1

#	End of record

