#	Name: ASD01200347
#	Creating user name:	WinNT
#	Creation time:	15. 06. 2019 19:09

#	Modifying user name:	WinNT
#	Modification time:	15. 06. 2019 19:09

#	Program:	/corina/corina34_cracker 3.40 0067  02.08.2006

@<TRIPOS>MOLECULE
ASD01200347
  54   57    0    0    0
SMALL
NO_CHARGES


@<TRIPOS>ATOM
   1 C1             0.0993     1.3096     0.8376 C.ar    
   2 C2             0.0890    -0.0549     0.6211 C.ar    
   3 C3             1.2416    -0.6969     0.1930 C.ar    
   4 C4             2.4030     0.0338    -0.0169 C.ar    
   5 C5             2.4077     1.3990     0.2013 C.ar    
   6 C6             1.2572     2.0358     0.6279 C.ar    
   7 C7             1.2649     3.5240     0.8650 C.3     
   8 C8             2.2973     3.8635     1.9420 C.3     
   9 C9             1.6220     4.2347    -0.4150 C.2     
  10 C10            2.2184     5.3554     2.2718 C.3     
  11 C11            1.2552     6.9809     3.7842 C.3     
  12 C12            0.9054     5.6745     3.0290 C.3     
  13 C13            3.3324     5.7487     3.2638 C.3     
  14 C14            2.7200     6.7822     4.2254 C.3     
  15 C15            0.7370     4.7355    -1.2911 C.2     
  16 N16            2.8974     4.4705    -0.8538 N.pl3   
  17 C17            1.5101     5.3352    -2.3800 C.ar    
  18 C18            1.1770     6.0004    -3.5619 C.ar    
  19 C19            2.8661     5.1400    -2.0535 C.ar    
  20 N20            3.8119     5.5879    -2.8682 N.ar    
  21 C21            3.5195     6.2148    -3.9880 C.ar    
  22 C22            2.2069     6.4411    -4.3719 C.ar    
  23 Cl23           3.8480    -0.7657    -0.5521 Cl      
  24 O24            1.2339    -2.0393    -0.0202 O.3     
  25 C25           -0.0232    -2.7081     0.0996 C.3     
  26 C26           -0.0020    -3.9880    -0.7385 C.3     
  27 C27           -0.2742    -3.0632     1.5665 C.3     
  28 H28           -0.7993     1.8103     1.1666 H       
  29 H29           -0.8158    -0.6212     0.7854 H       
  30 H30            3.3108     1.9685     0.0383 H       
  31 H31            0.2768     3.8445     1.1951 H       
  32 H32            2.0904     3.2814     2.8400 H       
  33 H33            3.2959     3.6246     1.5762 H       
  34 H34            2.2905     5.9507     1.3616 H       
  35 H35            1.1703     7.8403     3.1191 H       
  36 H36            0.6085     7.1042     4.6529 H       
  37 H37            0.0864     5.8403     2.3292 H       
  38 H38            0.6603     4.8768     3.7302 H       
  39 H39            3.6638     4.8718     3.8199 H       
  40 H40            4.1720     6.1900     2.7267 H       
  41 H41            3.2623     7.7250     4.1550 H       
  42 H42            2.7542     6.4068     5.2482 H       
  43 H43           -0.3393     4.7024    -1.2085 H       
  44 H44            3.7045     4.2040    -0.3865 H       
  45 H45            0.1453     6.1654    -3.8351 H       
  46 H46            4.3215     6.5632    -4.6218 H       
  47 H47            1.9908     6.9594    -5.2944 H       
  48 H48           -0.8185    -2.0535    -0.2570 H       
  49 H49            0.7933    -4.6426    -0.3819 H       
  50 H50           -0.9609    -4.4981    -0.6471 H       
  51 H51            0.1769    -3.7350    -1.7835 H       
  52 H52           -1.2332    -3.5733     1.6579 H       
  53 H53            0.5210    -3.7178     1.9231 H       
  54 H54           -0.2894    -2.1514     2.1636 H       
@<TRIPOS>BOND
   1    1    2 ar
   2    1    6 ar
   3    1   28 1
   4    2    3 ar
   5    2   29 1
   6    3    4 ar
   7    3   24 1
   8    4    5 ar
   9    4   23 1
  10    5    6 ar
  11    5   30 1
  12    6    7 1
  13    7    8 1
  14    7    9 1
  15    7   31 1
  16    8   10 1
  17    8   32 1
  18    8   33 1
  19    9   16 1
  20    9   15 2
  21   10   13 1
  22   10   12 1
  23   10   34 1
  24   11   12 1
  25   11   14 1
  26   11   35 1
  27   11   36 1
  28   12   37 1
  29   12   38 1
  30   13   14 1
  31   13   39 1
  32   13   40 1
  33   14   41 1
  34   14   42 1
  35   15   17 1
  36   15   43 1
  37   16   19 1
  38   16   44 1
  39   17   19 ar
  40   17   18 ar
  41   18   22 ar
  42   18   45 1
  43   19   20 ar
  44   20   21 ar
  45   21   22 ar
  46   21   46 1
  47   22   47 1
  48   24   25 1
  49   25   26 1
  50   25   27 1
  51   25   48 1
  52   26   49 1
  53   26   50 1
  54   26   51 1
  55   27   52 1
  56   27   53 1
  57   27   54 1

#	End of record

