#	Name: ASD07300194
#	Creating user name:	WinNT
#	Creation time:	15. 06. 2019 21:09

#	Modifying user name:	WinNT
#	Modification time:	15. 06. 2019 21:09

#	Program:	/corina/corina34_cracker 3.40 0067  02.08.2006

@<TRIPOS>MOLECULE
ASD07300194
  51   55    0    0    0
SMALL
NO_CHARGES


@<TRIPOS>ATOM
   1 C1            -0.4824     1.2573     1.2010 C.ar    
   2 C2            -0.5446    -0.1388     1.2489 C.ar    
   3 C3             0.5784    -0.8565     1.6325 C.ar    
   4 C4             1.7287    -0.1516     1.9561 C.ar    
   5 C5             1.7192     1.2288     1.8866 C.ar    
   6 N6             0.6368     1.8867     1.5185 N.ar    
   7 C7            -2.5263     0.6236     0.6056 C.2     
   8 N8            -1.7374     1.6974     0.7956 N.am    
   9 N9            -1.8326    -0.5010     0.8660 N.am    
  10 O10           -3.6888     0.6628     0.2484 O.2     
  11 C11           -2.1176     3.0356     0.6158 C.ar    
  12 C12           -2.6578     3.7525     1.6751 C.ar    
  13 C13           -3.0315     5.0696     1.4978 C.ar    
  14 C14           -2.8677     5.6769     0.2609 C.ar    
  15 C15           -2.3281     4.9611    -0.7978 C.ar    
  16 C16           -1.9488     3.6453    -0.6198 C.ar    
  17 O17           -3.2367     6.9738     0.0864 O.3     
  18 C18           -2.4286     7.9367     0.5862 C.2     
  19 N19           -1.2655     7.7251     1.1454 N.2     
  20 C20           -0.7237     8.9092     1.5339 C.ar    
  21 C21           -1.6365     9.9165     1.1791 C.ar    
  22 N22           -2.7037     9.2729     0.5762 N.pl3   
  23 C23            0.4728     9.2568     2.1651 C.ar    
  24 C24            0.7455    10.5798     2.4328 C.ar    
  25 C25           -0.1591    11.5702     2.0808 C.ar    
  26 C26           -1.3455    11.2434     1.4567 C.ar    
  27 C27           -3.9064     9.9082     0.0320 C.3     
  28 C28           -2.8366     3.0927     3.0182 C.3     
  29 C29           -2.3477    -1.8692     0.7714 C.3     
  30 C30           -2.9546    -2.2797     2.1145 C.3     
  31 H31            0.5578    -1.9353     1.6784 H       
  32 H32            2.6226    -0.6763     2.2595 H       
  33 H33            2.6141     1.7786     2.1383 H       
  34 H34           -3.4516     5.6273     2.3217 H       
  35 H35           -2.2009     5.4342    -1.7603 H       
  36 H36           -1.5245     3.0894    -1.4429 H       
  37 H37            1.1815     8.4906     2.4427 H       
  38 H38            1.6708    10.8481     2.9209 H       
  39 H39            0.0663    12.6040     2.2970 H       
  40 H40           -2.0456    12.0195     1.1847 H       
  41 H41           -4.6648     9.9782     0.8118 H       
  42 H42           -3.6592    10.9079    -0.3252 H       
  43 H43           -4.2899     9.3112    -0.7953 H       
  44 H44           -1.9373     3.2377     3.6168 H       
  45 H45           -3.6897     3.5373     3.5307 H       
  46 H46           -3.0121     2.0260     2.8786 H       
  47 H47           -3.1135    -1.9164    -0.0029 H       
  48 H48           -1.5329    -2.5475     0.5184 H       
  49 H49           -2.1889    -2.2325     2.8888 H       
  50 H50           -3.7695    -1.6014     2.3676 H       
  51 H51           -3.3379    -3.2977     2.0441 H       
@<TRIPOS>BOND
   1    1    2 ar
   2    1    6 ar
   3    1    8 1
   4    2    3 ar
   5    2    9 1
   6    3    4 ar
   7    3   31 1
   8    4    5 ar
   9    4   32 1
  10    5    6 ar
  11    5   33 1
  12    7    8 am
  13    7    9 am
  14    7   10 2
  15    8   11 1
  16    9   29 1
  17   11   12 ar
  18   11   16 ar
  19   12   13 ar
  20   12   28 1
  21   13   14 ar
  22   13   34 1
  23   14   15 ar
  24   14   17 1
  25   15   16 ar
  26   15   35 1
  27   16   36 1
  28   17   18 1
  29   18   19 2
  30   18   22 1
  31   19   20 1
  32   20   21 ar
  33   20   23 ar
  34   21   22 1
  35   21   26 ar
  36   22   27 1
  37   23   24 ar
  38   23   37 1
  39   24   25 ar
  40   24   38 1
  41   25   26 ar
  42   25   39 1
  43   26   40 1
  44   27   41 1
  45   27   42 1
  46   27   43 1
  47   28   44 1
  48   28   45 1
  49   28   46 1
  50   29   30 1
  51   29   47 1
  52   29   48 1
  53   30   49 1
  54   30   50 1
  55   30   51 1

#	End of record

