#	Name: ASD05430239
#	Creating user name:	WinNT
#	Creation time:	15. 06. 2019 21:00

#	Modifying user name:	WinNT
#	Modification time:	15. 06. 2019 21:00

#	Program:	/corina/corina34_cracker 3.40 0067  02.08.2006

@<TRIPOS>MOLECULE
ASD05430239
  60   65    0    0    0
SMALL
NO_CHARGES


@<TRIPOS>ATOM
   1 C1             0.0592     1.1769     0.4032 C.ar    
   2 C2             0.0201    -0.0136    -0.3219 C.ar    
   3 C3             1.1668    -0.4891    -0.9450 C.ar    
   4 C4             2.3484     0.2133    -0.8497 C.ar    
   5 C5             2.3950     1.4081    -0.1242 C.ar    
   6 C6             1.2408     1.8867     0.5031 C.ar    
   7 C7             4.8635    -0.0004     0.2469 C.3     
   8 C8             4.8270     1.5012     0.0666 C.2     
   9 C9             3.6566     2.1597    -0.0208 C.2     
  10 C10            5.7503    -0.3472     1.4457 C.3     
  11 S11            7.4370     0.3251     1.3916 S.o2    
  12 N12            7.2534     1.7987     0.6699 N.am    
  13 C13            6.1118     2.2229    -0.0103 C.2     
  14 N14            6.3693     3.3001    -0.6845 N.2     
  15 N15           -1.1789    -0.7323    -0.4217 N.pl3   
  16 C16           -1.7506    -1.2076    -1.5735 C.2     
  17 C17           -2.8873    -1.8345    -1.2148 C.2     
  18 N18           -3.0110    -1.7474     0.1178 N.2     
  19 C19           -1.9910    -1.0946     0.6051 C.2     
  20 C20           -3.8536    -2.5154    -2.1494 C.3     
  21 C21            8.2103     2.9067     0.6026 C.3     
  22 O22            7.7266     3.6820    -0.5145 O.3     
  23 C23            8.1755     3.7196     1.8711 C.ar    
  24 C24            5.0790    -0.4601     2.8148 C.3     
  25 C25            5.5597    -1.7201     2.0920 C.3     
  26 C26           -0.9538     2.8679     1.7332 C.3     
  27 O27           -1.0664     1.6422     1.0071 O.3     
  28 C28            9.6230     2.3864     0.3295 C.3     
  29 C29            8.9320     4.8723     1.9638 C.ar    
  30 C30            8.8937     5.6138     3.1345 C.ar    
  31 C31            8.0909     5.1649     4.1745 C.ar    
  32 C32            7.3611     4.0001     4.0077 C.ar    
  33 N33            7.4194     3.3248     2.8768 N.ar    
  34 F34            8.0231     5.8551     5.3339 F       
  35 O35            7.8967     0.6290     2.7014 O.2     
  36 O36            8.2413    -0.4144     0.4830 O.2     
  37 H37            1.1323    -1.4117    -1.5053 H       
  38 H38            3.2385    -0.1589    -1.3349 H       
  39 H39            1.2724     2.8091     1.0640 H       
  40 H40            3.8534    -0.3701     0.4229 H       
  41 H41            5.2694    -0.4647    -0.6519 H       
  42 H42            3.6429     3.2396    -0.0150 H       
  43 H43           -1.3637    -1.0999    -2.5761 H       
  44 H44           -1.8246    -0.8729     1.6489 H       
  45 H45           -3.5677    -3.5603    -2.2697 H       
  46 H46           -4.8603    -2.4595    -1.7351 H       
  47 H47           -3.8319    -2.0188    -3.1195 H       
  48 H48            5.6486    -0.1299     3.6834 H       
  49 H49            4.0039    -0.2873     2.8639 H       
  50 H50            4.8009    -2.3762     1.6656 H       
  51 H51            6.4457    -2.2188     2.4851 H       
  52 H52           -0.2202     2.7515     2.5310 H       
  53 H53           -0.6339     3.6618     1.0584 H       
  54 H54           -1.9214     3.1252     2.1641 H       
  55 H55            9.6361     1.8519    -0.6203 H       
  56 H56           10.3168     3.2258     0.2836 H       
  57 H57            9.9226     1.7109     1.1308 H       
  58 H58            9.5457     5.1915     1.1344 H       
  59 H59            9.4747     6.5186     3.2353 H       
  60 H60            6.7342     3.6430     4.8113 H       
@<TRIPOS>BOND
   1    1    2 ar
   2    1    6 ar
   3    1   27 1
   4    2    3 ar
   5    2   15 1
   6    3    4 ar
   7    3   37 1
   8    4    5 ar
   9    4   38 1
  10    5    6 ar
  11    5    9 1
  12    6   39 1
  13    7    8 1
  14    7   10 1
  15    7   40 1
  16    7   41 1
  17    8    9 2
  18    8   13 1
  19    9   42 1
  20   10   11 1
  21   10   24 1
  22   10   25 1
  23   11   12 am
  24   11   35 2
  25   11   36 2
  26   12   13 1
  27   12   21 1
  28   13   14 2
  29   14   22 1
  30   15   16 1
  31   15   19 1
  32   16   17 2
  33   16   43 1
  34   17   18 1
  35   17   20 1
  36   18   19 2
  37   19   44 1
  38   20   45 1
  39   20   46 1
  40   20   47 1
  41   21   22 1
  42   21   23 1
  43   21   28 1
  44   23   29 ar
  45   23   33 ar
  46   24   25 1
  47   24   48 1
  48   24   49 1
  49   25   50 1
  50   25   51 1
  51   26   27 1
  52   26   52 1
  53   26   53 1
  54   26   54 1
  55   28   55 1
  56   28   56 1
  57   28   57 1
  58   29   30 ar
  59   29   58 1
  60   30   31 ar
  61   30   59 1
  62   31   32 ar
  63   31   34 1
  64   32   33 ar
  65   32   60 1

#	End of record

