#	Name: ASD01730057
#	Creating user name:	WinNT
#	Creation time:	15. 06. 2019 19:23

#	Modifying user name:	WinNT
#	Modification time:	15. 06. 2019 19:23

#	Program:	/corina/corina34_cracker 3.40 0067  02.08.2006

@<TRIPOS>MOLECULE
ASD01730057
  33   35    0    0    0
SMALL
NO_CHARGES


@<TRIPOS>ATOM
   1 N1             0.1516     1.0850     0.3649 N.am    
   2 C2             0.0799    -0.2580     0.2773 C.2     
   3 S3             1.4902    -1.2060     0.4856 S.2     
   4 N4            -1.1021    -0.8548     0.0257 N.am    
   5 C5            -1.1620    -2.2416    -0.1513 C.ar    
   6 C6            -0.5050    -3.0850     0.7351 C.ar    
   7 C7            -0.5658    -4.4533     0.5582 C.ar    
   8 C8            -1.2801    -4.9842    -0.5015 C.ar    
   9 C9            -1.9357    -4.1460    -1.3862 C.ar    
  10 C10           -1.8833    -2.7772    -1.2103 C.ar    
  11 Cl11          -1.3535    -6.7046    -0.7217 Cl      
  12 N12            1.4422     2.9838     0.6655 N.2     
  13 C13            1.3331     1.6892     0.7379 C.2     
  14 S14            2.6739     0.6979     1.3066 S.3     
  15 C15            4.0559     1.6884     0.6840 C.3     
  16 C16            3.8271     3.1356     1.0393 C.ar    
  17 C17            2.5515     3.6934     1.0144 C.ar    
  18 C18            4.9141     3.9115     1.3957 C.ar    
  19 C19            4.7447     5.2414     1.7332 C.ar    
  20 C20            3.4811     5.8046     1.7153 C.ar    
  21 C21            2.3900     5.0431     1.3609 C.ar    
  22 H22           -0.6271     1.6265     0.1616 H       
  23 H23           -1.9112    -0.3230    -0.0328 H       
  24 H24            0.0532    -2.6711     1.5619 H       
  25 H25           -0.0550    -5.1096     1.2472 H       
  26 H26           -2.4926    -4.5629    -2.2124 H       
  27 H27           -2.3988    -2.1237    -1.8984 H       
  28 H28            4.9848     1.3442     1.1387 H       
  29 H29            4.1194     1.5850    -0.3992 H       
  30 H30            5.9022     3.4758     1.4111 H       
  31 H31            5.5990     5.8411     2.0104 H       
  32 H32            3.3502     6.8433     1.9807 H       
  33 H33            1.4056     5.4871     1.3493 H       
@<TRIPOS>BOND
   1    1    2 am
   2    1   13 1
   3    1   22 1
   4    2    3 2
   5    2    4 am
   6    4    5 1
   7    4   23 1
   8    5    6 ar
   9    5   10 ar
  10    6    7 ar
  11    6   24 1
  12    7    8 ar
  13    7   25 1
  14    8    9 ar
  15    8   11 1
  16    9   10 ar
  17    9   26 1
  18   10   27 1
  19   12   13 2
  20   12   17 1
  21   13   14 1
  22   14   15 1
  23   15   16 1
  24   15   28 1
  25   15   29 1
  26   16   17 ar
  27   16   18 ar
  28   17   21 ar
  29   18   19 ar
  30   18   30 1
  31   19   20 ar
  32   19   31 1
  33   20   21 ar
  34   20   32 1
  35   21   33 1

#	End of record

