#	Name: ASD02408082
#	Creating user name:	WinNT
#	Creation time:	15. 06. 2019 20:21

#	Modifying user name:	WinNT
#	Modification time:	15. 06. 2019 20:21

#	Program:	/corina/corina34_cracker 3.40 0067  02.08.2006

@<TRIPOS>MOLECULE
ASD02408082
  40   42    0    0    0
SMALL
NO_CHARGES


@<TRIPOS>ATOM
   1 C1             0.2815     0.9367    -0.0207 C.ar    
   2 C2             0.4448    -0.4294    -0.1523 C.ar    
   3 C3             1.4856     1.8430    -0.0201 C.3     
   4 C4             1.7936     2.2700    -1.4322 C.2     
   5 N5             2.8408     3.0885    -1.6512 N.am    
   6 N6             1.0399     1.8301    -2.4030 N.2     
   7 C7             1.2664     2.1757    -3.6768 C.2     
   8 C8             2.3394     3.0313    -3.9762 C.2     
   9 C9             3.1456     3.4904    -2.9030 C.2     
  10 N10            0.4585     1.6984    -4.6796 N.pl3   
  11 C11           -0.9805     1.4212    -4.5618 C.3     
  12 O12            4.0894     4.2344    -3.1064 O.2     
  13 C13           -0.6598    -1.2608    -0.1527 C.ar    
  14 C14           -1.9274    -0.7258    -0.0211 C.ar    
  15 C15           -2.0907     0.6406     0.1115 C.ar    
  16 C16           -0.9869     1.4724     0.1048 C.ar    
  17 C17           -0.4818    -2.7502    -0.2972 C.3     
  18 C18           -1.4559     0.8793    -5.9263 C.3     
  19 C19           -0.1454     0.3485    -6.5651 C.3     
  20 C20            0.8893     1.3853    -6.0542 C.3     
  21 C21            2.6147     3.4241    -5.3255 C.1     
  22 N22            2.8330     3.7358    -6.3958 N.1     
  23 H23            1.4353    -0.8474    -0.2551 H       
  24 H24            1.2777     2.7231     0.5884 H       
  25 H25            2.3417     1.3095     0.3930 H       
  26 H26            3.3796     3.3915    -0.9037 H       
  27 H27           -1.1520     0.6747    -3.7863 H       
  28 H28           -1.5164     2.3393    -4.3205 H       
  29 H29           -2.7904    -1.3752    -0.0221 H       
  30 H30           -3.0813     1.0587     0.2140 H       
  31 H31           -1.1144     2.5398     0.2084 H       
  32 H32           -0.3708    -3.2003     0.6893 H       
  33 H33           -1.3547    -3.1740    -0.7938 H       
  34 H34            0.4089    -2.9537    -0.8917 H       
  35 H35           -2.1742     0.0707    -5.7911 H       
  36 H36           -1.8834     1.6791    -6.5312 H       
  37 H37            0.0882    -0.6527    -6.2028 H       
  38 H38           -0.2069     0.3640    -7.6532 H       
  39 H39            0.8691     2.2797    -6.6768 H       
  40 H40            1.8889     0.9508    -6.0452 H       
@<TRIPOS>BOND
   1    1    2 ar
   2    1    3 1
   3    1   16 ar
   4    2   13 ar
   5    2   23 1
   6    3    4 1
   7    3   24 1
   8    3   25 1
   9    4    5 1
  10    4    6 2
  11    5    9 am
  12    5   26 1
  13    6    7 1
  14    7    8 2
  15    7   10 1
  16    8    9 1
  17    8   21 1
  18    9   12 2
  19   10   11 1
  20   10   20 1
  21   11   18 1
  22   11   27 1
  23   11   28 1
  24   13   14 ar
  25   13   17 1
  26   14   15 ar
  27   14   29 1
  28   15   16 ar
  29   15   30 1
  30   16   31 1
  31   17   32 1
  32   17   33 1
  33   17   34 1
  34   18   19 1
  35   18   35 1
  36   18   36 1
  37   19   20 1
  38   19   37 1
  39   19   38 1
  40   20   39 1
  41   20   40 1
  42   21   22 3

#	End of record

