#	Name: ASD08070145
#	Creating user name:	WinNT
#	Creation time:	15. 06. 2019 21:14

#	Modifying user name:	WinNT
#	Modification time:	15. 06. 2019 21:14

#	Program:	/corina/corina34_cracker 3.40 0067  02.08.2006

@<TRIPOS>MOLECULE
ASD08070145
  38   40    0    0    0
SMALL
NO_CHARGES


@<TRIPOS>ATOM
   1 C1            -0.0167     1.3808     0.0096 C.ar    
   2 C2             0.0021    -0.0041     0.0020 C.ar    
   3 C3             1.2035    -0.6865    -0.0126 C.ar    
   4 C4             2.4012     0.0145    -0.0203 C.ar    
   5 C5             2.3854     1.4157    -0.0131 C.ar    
   6 C6             1.1635     2.0925     0.0022 C.ar    
   7 O7             3.5819    -0.6538    -0.0342 O.3     
   8 N8             3.6327     3.5195    -0.0136 N.am    
   9 C9             3.6522     2.1719    -0.0206 C.2     
  10 C10            5.2618     3.3253    -2.2831 C.ar    
  11 C11            5.3680     4.4257    -1.4414 C.ar    
  12 C12            4.8906     4.2704    -0.0211 C.3     
  13 C13            5.6869     3.3982    -3.5936 C.ar    
  14 C14            6.2261     4.5750    -4.0767 C.ar    
  15 C15            6.3329     5.6743    -3.2422 C.ar    
  16 C16            5.8991     5.6013    -1.9194 C.ar    
  17 C17            6.0289     6.8378    -1.0692 C.3     
  18 C18            5.9261     6.4840     0.4130 C.3     
  19 C19            4.6651     5.6372     0.6221 C.3     
  20 O20            4.7139     1.5794    -0.0331 O.2     
  21 Cl21           1.2147    -2.4225    -0.0209 Cl      
  22 O22            6.8640     6.8322    -3.7155 O.3     
  23 H23           -0.9607     1.9055     0.0169 H       
  24 H24           -0.9276    -0.5537     0.0079 H       
  25 H25            1.1437     3.1723     0.0075 H       
  26 H26            3.9161    -0.8433    -0.9216 H       
  27 H27            2.7857     3.9922    -0.0037 H       
  28 H28            4.8463     2.4023    -1.9065 H       
  29 H29            5.6392     3.7232     0.5519 H       
  30 H30            5.5987     2.5375    -4.2400 H       
  31 H31            6.5632     4.6368    -5.1009 H       
  32 H32            6.9944     7.3059    -1.2608 H       
  33 H33            5.2336     7.5368    -1.3277 H       
  34 H34            6.8048     5.9148     0.7164 H       
  35 H35            5.8573     7.3970     1.0044 H       
  36 H36            3.8119     6.1273     0.1532 H       
  37 H37            4.4780     5.5145     1.6889 H       
  38 H38            6.2134     7.4345    -4.1016 H       
@<TRIPOS>BOND
   1    1    2 ar
   2    1    6 ar
   3    1   23 1
   4    2    3 ar
   5    2   24 1
   6    3    4 ar
   7    3   21 1
   8    4    5 ar
   9    4    7 1
  10    5    6 ar
  11    5    9 1
  12    6   25 1
  13    7   26 1
  14    8    9 am
  15    8   12 1
  16    8   27 1
  17    9   20 2
  18   10   11 ar
  19   10   13 ar
  20   10   28 1
  21   11   12 1
  22   11   16 ar
  23   12   19 1
  24   12   29 1
  25   13   14 ar
  26   13   30 1
  27   14   15 ar
  28   14   31 1
  29   15   16 ar
  30   15   22 1
  31   16   17 1
  32   17   18 1
  33   17   32 1
  34   17   33 1
  35   18   19 1
  36   18   34 1
  37   18   35 1
  38   19   36 1
  39   19   37 1
  40   22   38 1

#	End of record

