#	Name: ASD02508294
#	Creating user name:	WinNT
#	Creation time:	15. 06. 2019 20:24

#	Modifying user name:	WinNT
#	Modification time:	15. 06. 2019 20:24

#	Program:	/corina/corina34_cracker 3.40 0067  02.08.2006

@<TRIPOS>MOLECULE
ASD02508294
  29   30    0    0    0
SMALL
NO_CHARGES


@<TRIPOS>ATOM
   1 C1             0.0087     1.3593    -0.4207 C.ar    
   2 C2             0.0203    -0.0143    -0.3154 C.ar    
   3 C3             1.2130    -0.6901    -0.1127 C.ar    
   4 C4             2.4016     0.0048    -0.0136 C.ar    
   5 C5             2.4092     1.3883    -0.1167 C.ar    
   6 C6             1.2046     2.0759    -0.3228 C.ar    
   7 C7             5.2342     1.0117     1.3178 C.ar    
   8 C8             4.7287     1.3583     0.0719 C.ar    
   9 O9             3.5761     2.0724    -0.0187 O.3     
  10 C10            1.1996     3.5456    -0.4341 C.2     
  11 O11            0.0397     4.2023    -0.6321 O.3     
  12 C12            6.4066     0.2851     1.4163 C.ar    
  13 C13            7.0825    -0.1001     0.2770 C.ar    
  14 C14            6.5821     0.2437    -0.9807 C.ar    
  15 C15            5.3990     0.9769    -1.0786 C.ar    
  16 C16            7.3033    -0.1666    -2.2031 C.2     
  17 O17            6.8661     0.1337    -3.2959 O.2     
  18 O18            8.4459    -0.8736    -2.1058 O.3     
  19 O19            2.2413     4.1650    -0.3472 O.2     
  20 H20           -0.9228     1.8813    -0.5832 H       
  21 H21           -0.9044    -0.5670    -0.3909 H       
  22 H22            1.2125    -1.7670    -0.0313 H       
  23 H23            3.3269    -0.5292     0.1448 H       
  24 H24            4.7120     1.3145     2.2134 H       
  25 H25            0.0866     5.1659    -0.6986 H       
  26 H26            6.7946     0.0186     2.3883 H       
  27 H27            7.9983    -0.6669     0.3577 H       
  28 H28            5.0069     1.2458    -2.0483 H       
  29 H29            8.8820    -1.1192    -2.9331 H       
@<TRIPOS>BOND
   1    1    2 ar
   2    1    6 ar
   3    1   20 1
   4    2    3 ar
   5    2   21 1
   6    3    4 ar
   7    3   22 1
   8    4    5 ar
   9    4   23 1
  10    5    6 ar
  11    5    9 1
  12    6   10 1
  13    7    8 ar
  14    7   12 ar
  15    7   24 1
  16    8    9 1
  17    8   15 ar
  18   10   11 1
  19   10   19 2
  20   11   25 1
  21   12   13 ar
  22   12   26 1
  23   13   14 ar
  24   13   27 1
  25   14   15 ar
  26   14   16 1
  27   15   28 1
  28   16   17 2
  29   16   18 1
  30   18   29 1

#	End of record

