#	Name: ASD01884359
#	Creating user name:	WinNT
#	Creation time:	15. 06. 2019 19:48

#	Modifying user name:	WinNT
#	Modification time:	15. 06. 2019 19:48

#	Program:	/corina/corina34_cracker 3.40 0067  02.08.2006

@<TRIPOS>MOLECULE
ASD01884359
  27   28    0    0    0
SMALL
NO_CHARGES


@<TRIPOS>ATOM
   1 C1            -0.0195     1.3953    -0.0812 C.2     
   2 C2             0.0021    -0.0041     0.0020 C.2     
   3 C3            -1.2168    -0.6945     0.1010 C.2     
   4 C4            -2.3830    -0.0100     0.1147 C.2     
   5 N5            -2.4070     1.3450     0.0343 N.am    
   6 C6            -1.2698     2.0595    -0.0563 C.2     
   7 O7            -1.3167     3.2758    -0.1271 O.2     
   8 C8            -3.6948     2.0432     0.0529 C.3     
   9 C9            -4.0753     2.3729     1.4977 C.3     
  10 C10           -5.3365     3.2093     1.7228 C.3     
  11 C11           -5.3370     1.7176     2.0630 C.3     
  12 O12            1.1751    -0.6767    -0.0132 O.3     
  13 C13            1.5331    -1.3835     1.1760 C.3     
  14 C14            1.1999     2.1391    -0.1835 C.1     
  15 N15            2.1672     2.7292    -0.2646 N.1     
  16 H16           -1.2229    -1.7726     0.1659 H       
  17 H17           -3.3140    -0.5521     0.1909 H       
  18 H18           -3.6160     2.9661    -0.5217 H       
  19 H19           -4.4606     1.4050    -0.3879 H       
  20 H20           -3.2397     2.5286     2.1801 H       
  21 H21           -5.3308     3.9150     2.5535 H       
  22 H22           -5.8951     3.5247     0.8415 H       
  23 H23           -5.8960     1.0517     1.4056 H       
  24 H24           -5.3317     1.4420     3.1176 H       
  25 H25            1.6085    -0.6821     2.0069 H       
  26 H26            0.7705    -2.1298     1.3986 H       
  27 H27            2.4935    -1.8779     1.0296 H       
@<TRIPOS>BOND
   1    1    2 2
   2    1   14 1
   3    1    6 1
   4    2    3 1
   5    2   12 1
   6    3    4 2
   7    3   16 1
   8    4    5 1
   9    4   17 1
  10    5    6 am
  11    5    8 1
  12    6    7 2
  13    8    9 1
  14    8   18 1
  15    8   19 1
  16    9   10 1
  17    9   11 1
  18    9   20 1
  19   10   11 1
  20   10   21 1
  21   10   22 1
  22   11   23 1
  23   11   24 1
  24   12   13 1
  25   13   25 1
  26   13   26 1
  27   13   27 1
  28   14   15 3

#	End of record

