#	Name: ASD02560121
#	Creating user name:	WinNT
#	Creation time:	15. 06. 2019 20:24

#	Modifying user name:	WinNT
#	Modification time:	15. 06. 2019 20:24

#	Program:	/corina/corina34_cracker 3.40 0067  02.08.2006

@<TRIPOS>MOLECULE
ASD02560121
  57   61    0    0    0
SMALL
NO_CHARGES


@<TRIPOS>ATOM
   1 N1             0.0386     1.3281     0.4385 N.2     
   2 N2            -0.1999     0.1272     0.2767 N.2     
   3 C3             1.4576     1.6244     0.2027 C.3     
   4 N4             2.1328     0.3028     0.2479 N.3     
   5 C5             1.0138    -0.6097    -0.0984 C.3     
   6 S6             1.1371    -2.1496     0.8525 S.3     
   7 C7             1.0483    -1.5761     2.5712 C.3     
   8 C8             1.1389    -2.7588     3.5007 C.2     
   9 O9             1.2521    -3.8783     3.0483 O.2     
  10 N10            1.0939    -2.5725     4.8347 N.am    
  11 Br11           1.6991     2.4566    -1.5621 Br      
  12 C12            3.1495     0.2288    -0.7017 C.ar    
  13 C13            1.1106    -3.6713     5.6933 C.ar    
  14 C14            0.4499    -3.6066     6.9175 C.ar    
  15 C15            0.4646    -4.6902     7.7675 C.ar    
  16 C16            1.1439    -5.8557     7.3995 C.ar    
  17 C17            1.8057    -5.9165     6.1699 C.ar    
  18 C18            1.7822    -4.8315     5.3224 C.ar    
  19 Cl19          -0.3925    -2.1585     7.3729 Cl      
  20 C20            1.1624    -7.0179     8.3069 C.2     
  21 O21            0.5870    -6.9635     9.3757 O.2     
  22 O22            1.8175    -8.1404     7.9508 O.3     
  23 C23            4.2345     1.1304    -0.6551 C.ar    
  24 C24            3.1079    -0.7294    -1.6922 C.ar    
  25 C25            4.1186    -0.8120    -2.6451 C.ar    
  26 C26            5.1743     0.0478    -2.6265 C.ar    
  27 C27            5.2571     1.0361    -1.6310 C.ar    
  28 C28            6.3350     1.9374    -1.5878 C.ar    
  29 C29            6.3837     2.8827    -0.6098 C.ar    
  30 C30            5.3794     2.9718     0.3521 C.ar    
  31 C31            4.3189     2.1179     0.3387 C.ar    
  32 C32            6.2558    -0.0636    -3.6700 C.3     
  33 C33            6.9740    -1.4234    -3.6701 C.3     
  34 C34            6.9586    -1.3430    -5.2057 C.3     
  35 C35            5.7284    -0.4307    -5.0671 C.3     
  36 H36            1.8448     2.2755     0.9865 H       
  37 H37            1.0140    -0.8217    -1.1676 H       
  38 H38            1.8749    -0.8938     2.7697 H       
  39 H39            0.1029    -1.0583     2.7330 H       
  40 H40            1.0501    -1.6740     5.1977 H       
  41 H41           -0.0476    -4.6397     8.7170 H       
  42 H42            2.3315    -6.8151     5.8829 H       
  43 H43            2.2935    -4.8782     4.3723 H       
  44 H44            1.8016    -8.8758     8.5784 H       
  45 H45            2.2817    -1.4240    -1.7288 H       
  46 H46            4.0650    -1.5708    -3.4117 H       
  47 H47            7.1207     1.8798    -2.3266 H       
  48 H48            7.2131     3.5737    -0.5786 H       
  49 H49            5.4416     3.7310     1.1176 H       
  50 H50            3.5477     2.1985     1.0905 H       
  51 H51            6.9350     0.7889    -3.6684 H       
  52 H52            7.9754    -1.3883    -3.2410 H       
  53 H53            6.3691    -2.2367    -3.2693 H       
  54 H54            7.8299    -0.8402    -5.6254 H       
  55 H55            6.7437    -2.2952    -5.6907 H       
  56 H56            4.7828    -0.9727    -5.0484 H       
  57 H57            5.7241     0.4058    -5.7660 H       
@<TRIPOS>BOND
   1    1    2 2
   2    1    3 1
   3    2    5 1
   4    3    4 1
   5    3   11 1
   6    3   36 1
   7    4    5 1
   8    4   12 1
   9    5    6 1
  10    5   37 1
  11    6    7 1
  12    7    8 1
  13    7   38 1
  14    7   39 1
  15    8    9 2
  16    8   10 am
  17   10   13 1
  18   10   40 1
  19   12   23 ar
  20   12   24 ar
  21   13   14 ar
  22   13   18 ar
  23   14   15 ar
  24   14   19 1
  25   15   16 ar
  26   15   41 1
  27   16   17 ar
  28   16   20 1
  29   17   18 ar
  30   17   42 1
  31   18   43 1
  32   20   21 2
  33   20   22 1
  34   22   44 1
  35   23   27 ar
  36   23   31 ar
  37   24   25 ar
  38   24   45 1
  39   25   26 ar
  40   25   46 1
  41   26   27 ar
  42   26   32 1
  43   27   28 ar
  44   28   29 ar
  45   28   47 1
  46   29   30 ar
  47   29   48 1
  48   30   31 ar
  49   30   49 1
  50   31   50 1
  51   32   33 1
  52   32   35 1
  53   32   51 1
  54   33   34 1
  55   33   52 1
  56   33   53 1
  57   34   35 1
  58   34   54 1
  59   34   55 1
  60   35   56 1
  61   35   57 1

#	End of record

