#	Name: ASD06020055
#	Creating user name:	WinNT
#	Creation time:	15. 06. 2019 21:04

#	Modifying user name:	WinNT
#	Modification time:	15. 06. 2019 21:04

#	Program:	/corina/corina34_cracker 3.40 0067  02.08.2006

@<TRIPOS>MOLECULE
ASD06020055
  38   41    0    0    0
SMALL
NO_CHARGES


@<TRIPOS>ATOM
   1 C1             0.0027    -0.0072     0.0093 C.1     
   2 C2            -0.0172     1.4245     0.0312 C.ar    
   3 C3             1.1900     2.1504     0.0274 C.ar    
   4 C4             1.1544     3.5443     0.0484 C.ar    
   5 C5            -0.0601     4.2036     0.0728 C.ar    
   6 C6            -1.2459     3.4894     0.0766 C.ar    
   7 C7            -1.2317     2.1092     0.0507 C.ar    
   8 N8             0.0185    -1.1430    -0.0080 N.1     
   9 C9             6.1987     0.2750    -0.0597 C.ar    
  10 C10            4.8502     0.6478    -0.0378 C.ar    
  11 C11            3.8602    -0.3418    -0.0404 C.ar    
  12 C12            4.2976    -1.6923    -0.0655 C.ar    
  13 C13            5.6305    -1.9648    -0.0857 C.ar    
  14 N14            6.5390    -1.0011    -0.0825 N.ar    
  15 S15            4.0609     2.2207    -0.0057 S.3     
  16 C16            2.4846     1.4401     0.0017 C.2     
  17 N17            2.6229     0.1543    -0.0185 N.2     
  18 N18            7.1883     1.2558    -0.0631 N.pl3   
  19 C19           10.1358    -0.7237     0.3088 C.ar    
  20 N20            8.8677    -0.3760     0.2229 N.ar    
  21 C21            8.5239     0.8935     0.0272 C.ar    
  22 C22            9.5293     1.8561    -0.0863 C.ar    
  23 C23           10.8441     1.4450     0.0101 C.ar    
  24 N24           11.1074     0.1605     0.2058 N.ar    
  25 C25           11.9661     2.4443    -0.1061 C.3     
  26 O26           11.4220     3.7494    -0.3130 O.3     
  27 F27            3.3970    -2.6993    -0.0689 F       
  28 Cl28           2.6348     4.4509     0.0445 Cl      
  29 H29           -0.0840     5.2832     0.0894 H       
  30 H30           -2.1888     4.0157     0.0958 H       
  31 H31           -2.1614     1.5597     0.0493 H       
  32 H32            5.9563    -2.9943    -0.1044 H       
  33 H33            6.9431     2.1920    -0.1286 H       
  34 H34           10.3857    -1.7615     0.4725 H       
  35 H35            9.2847     2.8958    -0.2459 H       
  36 H36           12.5553     2.4374     0.8109 H       
  37 H37           12.6035     2.1786    -0.9495 H       
  38 H38           12.0888     4.4447    -0.3970 H       
@<TRIPOS>BOND
   1    1    2 1
   2    1    8 3
   3    2    3 ar
   4    2    7 ar
   5    3    4 ar
   6    3   16 1
   7    4    5 ar
   8    4   28 1
   9    5    6 ar
  10    5   29 1
  11    6    7 ar
  12    6   30 1
  13    7   31 1
  14    9   10 ar
  15    9   14 ar
  16    9   18 1
  17   10   11 ar
  18   10   15 1
  19   11   12 ar
  20   11   17 1
  21   12   13 ar
  22   12   27 1
  23   13   14 ar
  24   13   32 1
  25   15   16 1
  26   16   17 2
  27   18   21 1
  28   18   33 1
  29   19   20 ar
  30   19   24 ar
  31   19   34 1
  32   20   21 ar
  33   21   22 ar
  34   22   23 ar
  35   22   35 1
  36   23   24 ar
  37   23   25 1
  38   25   26 1
  39   25   36 1
  40   25   37 1
  41   26   38 1

#	End of record

