#	Name: ASD01830003
#	Creating user name:	WinNT
#	Creation time:	15. 06. 2019 19:36

#	Modifying user name:	WinNT
#	Modification time:	15. 06. 2019 19:36

#	Program:	/corina/corina34_cracker 3.40 0067  02.08.2006

@<TRIPOS>MOLECULE
ASD01830003
  78   80    0    0    0
SMALL
NO_CHARGES


@<TRIPOS>ATOM
   1 Cl1            0.0000     0.0000     0.0000 Cl      
   2 H2             0.0000     1.3700     0.0000 H       
   3 Cl3            5.0000     6.3700     5.0000 Cl      
   4 H4             5.0000     7.7400     5.0000 H       
   5 C5            11.8064    20.5095    11.3721 C.3     
   6 C6            12.0383    19.0017    11.2551 C.3     
   7 H7            12.4557    18.7657    10.2763 H       
   8 C8            10.7059    18.2487    11.4531 C.3     
   9 C9            11.1289    16.9982    12.2681 C.3     
  10 C10           12.2456    17.5770    13.1723 C.3     
  11 N11           12.9596    18.5522    12.3149 N.3     
  12 C12           13.4490    19.6902    13.1045 C.3     
  13 C13           14.1835    19.1809    14.3178 C.2     
  14 S14           13.4655    18.8343    15.8891 S.3     
  15 C15           15.0416    18.3491    16.5061 C.2     
  16 N16           15.2949    17.9052    17.7968 N.am    
  17 C17           16.5467    17.5597    18.1572 C.2     
  18 O18           17.4542    17.6368    17.3519 O.2     
  19 C19           16.8163    17.0873    19.5310 C.ar    
  20 C20           18.1124    16.7352    19.9056 C.ar    
  21 N21           18.3528    16.3130    21.1335 N.ar    
  22 C22           17.3604    16.2239    22.0108 C.ar    
  23 C23           16.0600    16.5767    21.6346 C.ar    
  24 N24           15.8213    17.0027    20.4141 N.ar    
  25 N25           17.6123    15.7813    23.2978 N.3     
  26 C26           18.0175    16.8944    24.1676 C.3     
  27 C27           18.2091    16.3787    25.5958 C.3     
  28 N28           19.2239    15.3158    25.5981 N.3     
  29 C29           19.4913    14.8461    26.9641 C.3     
  30 C30           20.1408    15.9713    27.7723 C.3     
  31 C31           20.4150    15.4894    29.1736 C.2     
  32 O32           20.9857    16.3129    30.0668 O.3     
  33 O33           20.1212    14.3618    29.4931 O.2     
  34 C34           18.8187    14.2028    24.7283 C.3     
  35 C35           18.6271    14.7185    23.3001 C.3     
  36 H36           19.5711    15.1162    22.9275 H       
  37 C37           18.1658    13.5703    22.4003 C.3     
  38 N38           15.9292    18.4697    15.5685 N.2     
  39 C39           15.5005    18.9070    14.3857 C.2     
  40 C40           16.4066    19.0831    13.2305 C.2     
  41 C41           17.6926    19.4794    13.3035 C.2     
  42 C42           18.3378    19.5710    12.0859 C.2     
  43 C43           17.5916    19.2539    11.0252 C.2     
  44 S44           15.9752    18.8004    11.5489 S.3     
  45 C45           19.7779    19.9979    11.9635 C.3     
  46 F46           20.6055    18.8722    12.0335 F       
  47 F47           19.9705    20.6429    10.7371 F       
  48 F48           20.0945    20.8750    13.0064 F       
  49 H49           12.7562    21.0328    11.2619 H       
  50 H50           11.1202    20.8333    10.5895 H       
  51 H51           11.3776    20.7365    12.3481 H       
  52 H52           10.0000    18.8567    12.0189 H       
  53 H53           10.2816    17.9572    10.4924 H       
  54 H54           10.2984    16.6222    12.8655 H       
  55 H55           11.5209    16.2198    11.6134 H       
  56 H56           11.8117    18.0773    14.0380 H       
  57 H57           12.9243    16.7858    13.4908 H       
  58 H58           14.1252    20.2907    12.4960 H       
  59 H59           12.6047    20.3025    13.4213 H       
  60 H60           14.5708    17.8438    18.4393 H       
  61 H61           18.9195    16.8074    19.1916 H       
  62 H62           15.2528    16.5034    22.3484 H       
  63 H63           18.9546    17.3169    23.8048 H       
  64 H64           17.2444    17.6627    24.1590 H       
  65 H65           18.5378    17.1967    26.2368 H       
  66 H66           17.2651    15.9809    25.9685 H       
  67 H67           18.5543    14.5529    27.4374 H       
  68 H68           20.1641    13.9893    26.9285 H       
  69 H69           21.0778    16.2645    27.2989 H       
  70 H70           19.4680    16.8281    27.8078 H       
  71 H71           21.1420    15.9590    30.9530 H       
  72 H72           19.5918    13.4344    24.7369 H       
  73 H73           17.8817    13.7803    25.0911 H       
  74 H74           18.1269    13.9122    21.3661 H       
  75 H75           18.8672    12.7400    22.4824 H       
  76 H76           17.1745    13.2405    22.7115 H       
  77 H77           18.1799    19.7077    14.2399 H       
  78 H78           17.9308    19.2698    10.0000 H       
@<TRIPOS>BOND
   1    1    2 1
   2    3    4 1
   3    5    6 1
   4    5   49 1
   5    5   50 1
   6    5   51 1
   7    6    7 1
   8    6   11 1
   9    6    8 1
  10    8    9 1
  11    8   52 1
  12    8   53 1
  13    9   10 1
  14    9   54 1
  15    9   55 1
  16   10   11 1
  17   10   56 1
  18   10   57 1
  19   11   12 1
  20   12   13 1
  21   12   58 1
  22   12   59 1
  23   13   39 2
  24   13   14 1
  25   14   15 1
  26   15   16 1
  27   15   38 2
  28   16   17 am
  29   16   60 1
  30   17   18 2
  31   17   19 1
  32   19   24 ar
  33   19   20 ar
  34   20   21 ar
  35   20   61 1
  36   21   22 ar
  37   22   23 ar
  38   22   25 1
  39   23   24 ar
  40   23   62 1
  41   25   35 1
  42   25   26 1
  43   26   27 1
  44   26   63 1
  45   26   64 1
  46   27   28 1
  47   27   65 1
  48   27   66 1
  49   28   29 1
  50   28   34 1
  51   29   30 1
  52   29   67 1
  53   29   68 1
  54   30   31 1
  55   30   69 1
  56   30   70 1
  57   31   32 1
  58   31   33 2
  59   32   71 1
  60   34   35 1
  61   34   72 1
  62   34   73 1
  63   35   36 1
  64   35   37 1
  65   37   74 1
  66   37   75 1
  67   37   76 1
  68   38   39 1
  69   39   40 1
  70   40   44 1
  71   40   41 2
  72   41   42 1
  73   41   77 1
  74   42   43 2
  75   42   45 1
  76   43   44 1
  77   43   78 1
  78   45   46 1
  79   45   47 1
  80   45   48 1

#	End of record

