#	Name: ASD08170365
#	Creating user name:	WinNT
#	Creation time:	15. 06. 2019 21:17

#	Modifying user name:	WinNT
#	Modification time:	15. 06. 2019 21:17

#	Program:	/corina/corina34_cracker 3.40 0067  02.08.2006

@<TRIPOS>MOLECULE
ASD08170365
  69   70    0    0    0
SMALL
NO_CHARGES


@<TRIPOS>ATOM
   1 C1            -0.0155     1.2910     0.0091 C.2     
   2 N2             0.0021    -0.0041     0.0020 N.2     
   3 N3            -1.1192    -0.5842     0.0096 N.2     
   4 C4            -2.1834     0.1604     0.0237 C.2     
   5 S5            -1.7028     1.8047     0.0357 S.3     
   6 C6             1.1892     2.1964     0.0025 C.3     
   7 C7             4.5555     4.7703    -3.3985 C.3     
   8 C8             4.8121     4.9823    -4.8682 C.2     
   9 C9             5.9134     5.8179    -5.4897 C.3     
  10 C10            5.6765     5.6583    -6.9786 C.2     
  11 N11            4.6389     4.8796    -7.0906 N.2     
  12 N12            4.1415     4.4842    -5.8533 N.2     
  13 N13            6.4064     6.2202    -7.9998 N.am    
  14 C14            6.0668     5.9806    -9.2819 C.2     
  15 O15            5.1176     5.2696    -9.5349 O.2     
  16 C16            6.8666     6.5963   -10.4009 C.3     
  17 C17            6.4394     8.0284   -10.5948 C.ar    
  18 N18           -3.4954    -0.3008     0.0334 N.am    
  19 C19           -3.7441    -1.6254     0.0287 C.2     
  20 O20           -2.8238    -2.4152     0.0161 O.2     
  21 C21           -5.1658    -2.1251     0.0391 C.3     
  22 C22           -5.7086    -2.0663     1.4438 C.ar    
  23 C23            7.1981     9.0541   -10.0625 C.ar    
  24 C24           -5.3846    -3.0568     2.3520 C.ar    
  25 N25           -5.2006    -3.5128    -0.4415 N.3     
  26 N26            6.6338     5.8437   -11.6408 N.3     
  27 C27            6.8062    10.3677   -10.2403 C.ar    
  28 C28            5.6559    10.6557   -10.9508 C.ar    
  29 C29            4.8978     9.6301   -11.4839 C.ar    
  30 C30            5.2920     8.3166   -11.3098 C.ar    
  31 C31           -6.5260    -1.0189     1.8256 C.ar    
  32 C32           -7.0239    -0.9650     3.1140 C.ar    
  33 C33           -6.7049    -1.9587     4.0204 C.ar    
  34 C34           -5.8826    -3.0028     3.6404 C.ar    
  35 C35            1.5828     2.5110    -1.4422 C.3     
  36 C36            3.3418     3.8560    -3.2193 C.3     
  37 S37            3.0330     3.6007    -1.4501 S.3     
  38 H38            0.9501     3.1232     0.5240 H       
  39 H39            2.0193     1.7002     0.5054 H       
  40 H40            5.4296     4.3078    -2.9400 H       
  41 H41            4.3604     5.7307    -2.9214 H       
  42 H42            5.8157     6.8628    -5.1950 H       
  43 H43            6.8934     5.4294    -5.2127 H       
  44 H44            7.1657     6.7889    -7.7974 H       
  45 H45            7.9269     6.5642   -10.1501 H       
  46 H46           -4.2314     0.3309     0.0435 H       
  47 H47           -5.7756    -1.4995    -0.6126 H       
  48 H48            8.0967     8.8290    -9.5074 H       
  49 H49           -4.7428    -3.8729     2.0549 H       
  50 H50           -4.6423    -4.1133     0.1465 H       
  51 H51           -6.1495    -3.8498    -0.5051 H       
  52 H52            6.9715     4.8965   -11.5578 H       
  53 H53            5.6574     5.8585   -11.8949 H       
  54 H54            7.3985    11.1690    -9.8238 H       
  55 H55            5.3494    11.6820   -11.0891 H       
  56 H56            3.9989     9.8551   -12.0387 H       
  57 H57            4.6997     7.5153   -11.7263 H       
  58 H58           -6.7752    -0.2425     1.1174 H       
  59 H59           -7.6619    -0.1463     3.4125 H       
  60 H60           -7.0937    -1.9164     5.0272 H       
  61 H61           -5.6333    -3.7792     4.3486 H       
  62 H62            1.8219     1.5842    -1.9637 H       
  63 H63            0.7527     3.0071    -1.9450 H       
  64 H64            2.4677     4.3185    -3.6778 H       
  65 H65            3.5369     2.8955    -3.6964 H       
  66 Cl66          13.0967    16.6820    10.0272 Cl      
  67 H67           13.0967    18.0520    10.0272 H       
  68 Cl68          18.0967    23.0520    15.0272 Cl      
  69 H69           18.0967    24.4220    15.0272 H       
@<TRIPOS>BOND
   1    1    2 2
   2    1    6 1
   3    1    5 1
   4    2    3 1
   5    3    4 2
   6    4    5 1
   7    4   18 1
   8    6   35 1
   9    6   38 1
  10    6   39 1
  11    7    8 1
  12    7   36 1
  13    7   40 1
  14    7   41 1
  15    8    9 1
  16    8   12 2
  17    9   10 1
  18    9   42 1
  19    9   43 1
  20   10   11 2
  21   10   13 1
  22   11   12 1
  23   13   14 am
  24   13   44 1
  25   14   15 2
  26   14   16 1
  27   16   17 1
  28   16   26 1
  29   16   45 1
  30   17   23 ar
  31   17   30 ar
  32   18   19 am
  33   18   46 1
  34   19   20 2
  35   19   21 1
  36   21   22 1
  37   21   25 1
  38   21   47 1
  39   22   31 ar
  40   22   24 ar
  41   23   27 ar
  42   23   48 1
  43   24   34 ar
  44   24   49 1
  45   25   50 1
  46   25   51 1
  47   26   52 1
  48   26   53 1
  49   27   28 ar
  50   27   54 1
  51   28   29 ar
  52   28   55 1
  53   29   30 ar
  54   29   56 1
  55   30   57 1
  56   31   32 ar
  57   31   58 1
  58   32   33 ar
  59   32   59 1
  60   33   34 ar
  61   33   60 1
  62   34   61 1
  63   35   37 1
  64   35   62 1
  65   35   63 1
  66   36   37 1
  67   36   64 1
  68   36   65 1
  69   66   67 1
  70   68   69 1

#	End of record

