#	Name: ASD02030271
#	Creating user name:	WinNT
#	Creation time:	15. 06. 2019 20:14

#	Modifying user name:	WinNT
#	Modification time:	15. 06. 2019 20:14

#	Program:	/corina/corina34_cracker 3.40 0067  02.08.2006

@<TRIPOS>MOLECULE
ASD02030271
  58   61    0    0    0
SMALL
NO_CHARGES


@<TRIPOS>ATOM
   1 N1             0.2211     0.8822     0.5078 N.am    
   2 C2             1.1867    -0.1182     0.0315 C.3     
   3 C3             0.4719    -1.4696    -0.0912 C.3     
   4 N4            -0.7753    -1.2746    -0.8437 N.am    
   5 C5            -1.7408    -0.2742    -0.3674 C.3     
   6 C6            -1.0286     1.0732    -0.2415 C.3     
   7 C7             0.4747     1.6075     1.6151 C.2     
   8 C8             1.6775     1.3224     2.4260 C.2     
   9 N9             1.9759     1.8676     3.5856 N.2     
  10 N10            2.6571     0.4552     2.1110 N.2     
  11 C11            3.5353     0.4916     3.0806 C.2     
  12 N12            3.0956     1.3795     3.9958 N.pl3   
  13 C13            3.7470     1.7152     5.1904 C.ar    
  14 O14           -0.2855     2.4960     1.9470 O.2     
  15 C15           -1.0289    -1.9999    -1.9510 C.2     
  16 C16           -2.3446    -2.6599    -2.1189 C.ar    
  17 O17           -0.1784    -2.1124    -2.8116 O.2     
  18 C18            3.1852     2.6493     6.0502 C.ar    
  19 C19            3.8297     2.9781     7.2270 C.ar    
  20 C20            5.0330     2.3781     7.5488 C.ar    
  21 C21            5.5954     1.4475     6.6940 C.ar    
  22 C22            4.9529     1.1100     5.5192 C.ar    
  23 N23           -3.3811    -2.2552    -1.3935 N.ar    
  24 C24            3.2208     3.9923     8.1606 C.3     
  25 C25           -4.5689    -2.8166    -1.5132 C.ar    
  26 C26           -4.7763    -3.8603    -2.4113 C.ar    
  27 C27           -3.7198    -4.3088    -3.1841 C.ar    
  28 C28           -2.4843    -3.6943    -3.0393 C.ar    
  29 O29           -5.6002    -2.3722    -0.7520 O.3     
  30 C30           -5.3559    -1.2266     0.0666 C.3     
  31 C31           -2.8935    -0.1567    -1.3666 C.3     
  32 C32            1.3705    -2.4601    -0.8344 C.3     
  33 H33            1.5730     0.1811    -0.9429 H       
  34 H34            2.0079    -0.2019     0.7433 H       
  35 H35            0.2432    -1.8540     0.9028 H       
  36 H36           -2.1271    -0.5735     0.6070 H       
  37 H37           -1.6698     1.7779     0.2880 H       
  38 H38           -0.7982     1.4594    -1.2345 H       
  39 H39            4.4458    -0.0864     3.1386 H       
  40 H40            2.2455     3.1186     5.7992 H       
  41 H41            5.5350     2.6368     8.4693 H       
  42 H42            6.5358     0.9810     6.9478 H       
  43 H43            5.3926     0.3834     4.8521 H       
  44 H44            2.5690     3.4857     8.8723 H       
  45 H45            4.0132     4.5116     8.6997 H       
  46 H46            2.6400     4.7132     7.5853 H       
  47 H47           -5.7515    -4.3152    -2.5034 H       
  48 H48           -3.8551    -5.1168    -3.8879 H       
  49 H49           -1.6393    -4.0205    -3.6275 H       
  50 H50           -4.3867    -1.3289     0.5547 H       
  51 H51           -5.3576    -0.3301    -0.5534 H       
  52 H52           -6.1369    -1.1470     0.8227 H       
  53 H53           -3.8379    -0.0930    -0.8260 H       
  54 H54           -2.7599     0.7402    -1.9715 H       
  55 H55           -2.9039    -1.0334    -2.0141 H       
  56 H56            2.3095    -2.5756    -0.2931 H       
  57 H57            0.8690    -3.4255    -0.9020 H       
  58 H58            1.5731    -2.0849    -1.8375 H       
@<TRIPOS>BOND
   1    1    2 1
   2    1    7 am
   3    1    6 1
   4    2    3 1
   5    2   33 1
   6    2   34 1
   7    3    4 1
   8    3   32 1
   9    3   35 1
  10    4    5 1
  11    4   15 am
  12    5    6 1
  13    5   31 1
  14    5   36 1
  15    6   37 1
  16    6   38 1
  17    7    8 1
  18    7   14 2
  19    8    9 2
  20    8   10 1
  21    9   12 1
  22   10   11 2
  23   11   12 1
  24   11   39 1
  25   12   13 1
  26   13   18 ar
  27   13   22 ar
  28   15   16 1
  29   15   17 2
  30   16   23 ar
  31   16   28 ar
  32   18   19 ar
  33   18   40 1
  34   19   20 ar
  35   19   24 1
  36   20   21 ar
  37   20   41 1
  38   21   22 ar
  39   21   42 1
  40   22   43 1
  41   23   25 ar
  42   24   44 1
  43   24   45 1
  44   24   46 1
  45   25   26 ar
  46   25   29 1
  47   26   27 ar
  48   26   47 1
  49   27   28 ar
  50   27   48 1
  51   28   49 1
  52   29   30 1
  53   30   50 1
  54   30   51 1
  55   30   52 1
  56   31   53 1
  57   31   54 1
  58   31   55 1
  59   32   56 1
  60   32   57 1
  61   32   58 1

#	End of record

