#	Name: ASD01814813
#	Creating user name:	WinNT
#	Creation time:	15. 06. 2019 19:33

#	Modifying user name:	WinNT
#	Modification time:	15. 06. 2019 19:33

#	Program:	/corina/corina34_cracker 3.40 0067  02.08.2006

@<TRIPOS>MOLECULE
ASD01814813
  56   60    0    0    0
SMALL
NO_CHARGES


@<TRIPOS>ATOM
   1 C1            -0.0184     1.5040     0.0103 C.3     
   2 C2             0.0021    -0.0041     0.0020 C.ar    
   3 C3             1.3469    -0.3809    -0.0128 C.ar    
   4 C4             2.1705     0.8434    -0.0141 C.2     
   5 C5            -0.9872    -0.9601     0.0059 C.ar    
   6 C6            -0.6509    -2.3033    -0.0049 C.ar    
   7 C7             0.6785    -2.6876    -0.0192 C.ar    
   8 C8             1.6782    -1.7372    -0.0240 C.ar    
   9 O9             3.3858     0.8631    -0.0253 O.2     
  10 C10            1.0356    -4.1516    -0.0299 C.3     
  11 C11            1.0213    -4.6618    -1.4478 C.ar    
  12 C12           -0.1153    -5.2677    -1.9506 C.ar    
  13 C13            2.1451    -4.5171    -2.2453 C.ar    
  14 C14            2.1356    -4.9830    -3.5467 C.ar    
  15 C15            0.9938    -5.5986    -4.0544 C.ar    
  16 C16           -0.1344    -5.7366    -3.2490 C.ar    
  17 N17            1.3846     1.9338    -0.0008 N.am    
  18 C18           -1.7355    -3.3495    -0.0006 C.3     
  19 C19            0.9774    -6.1010    -5.4512 C.2     
  20 N20            1.9808    -6.0364    -6.3446 N.2     
  21 N21            1.5908    -6.5758    -7.4451 N.2     
  22 N22            0.3804    -6.9977    -7.3355 N.pl3   
  23 C23           -0.0568    -6.7266    -6.0851 C.2     
  24 C24            1.8517     3.3224     0.0018 C.3     
  25 C25            4.2044     3.3717     0.6446 C.3     
  26 C26            2.7764     3.5666     1.2122 C.3     
  27 C27            2.6930     3.5978    -1.2568 C.3     
  28 C28            4.0996     3.9997    -0.7674 C.3     
  29 O29            2.1130     4.6651    -2.0094 O.3     
  30 C30           -0.3919    -7.6649    -8.3865 C.3     
  31 F31            3.2513    -3.9197    -1.7505 F       
  32 H32           -0.5313     1.8765    -0.8764 H       
  33 H33           -0.5142     1.8670     0.9106 H       
  34 H34           -2.0256    -0.6631     0.0178 H       
  35 H35            2.7144    -2.0414    -0.0354 H       
  36 H36            2.0306    -4.2860     0.3945 H       
  37 H37            0.3095    -4.7071     0.5635 H       
  38 H38           -0.9899    -5.3747    -1.3262 H       
  39 H39            3.0113    -4.8696    -4.1685 H       
  40 H40           -1.0230    -6.2099    -3.6398 H       
  41 H41           -2.0067    -3.5959    -1.0272 H       
  42 H42           -1.3743    -4.2452     0.5048 H       
  43 H43           -2.6100    -2.9642     0.5237 H       
  44 H44           -1.0281    -6.9562    -5.6725 H       
  45 H45            1.0005     4.0023     0.0381 H       
  46 H46            4.9370     3.9043     1.2509 H       
  47 H47            4.4526     2.3124     0.5788 H       
  48 H48            2.6511     4.5815     1.5894 H       
  49 H49            2.5758     2.8388     1.9985 H       
  50 H50            2.7537     2.6983    -1.8695 H       
  51 H51            4.1880     5.0846    -0.7098 H       
  52 H52            4.8647     3.5881    -1.4257 H       
  53 H53            2.5982     4.8866    -2.8160 H       
  54 H54           -0.2368    -8.7420    -8.3231 H       
  55 H55           -1.4509    -7.4421    -8.2562 H       
  56 H56           -0.0627    -7.3073    -9.3621 H       
@<TRIPOS>BOND
   1    1    2 1
   2    1   17 1
   3    1   32 1
   4    1   33 1
   5    2    3 ar
   6    2    5 ar
   7    3    4 1
   8    3    8 ar
   9    4    9 2
  10    4   17 am
  11    5    6 ar
  12    5   34 1
  13    6    7 ar
  14    6   18 1
  15    7   10 1
  16    7    8 ar
  17    8   35 1
  18   10   11 1
  19   10   36 1
  20   10   37 1
  21   11   13 ar
  22   11   12 ar
  23   12   16 ar
  24   12   38 1
  25   13   14 ar
  26   13   31 1
  27   14   15 ar
  28   14   39 1
  29   15   16 ar
  30   15   19 1
  31   16   40 1
  32   17   24 1
  33   18   41 1
  34   18   42 1
  35   18   43 1
  36   19   20 1
  37   19   23 2
  38   20   21 2
  39   21   22 1
  40   22   23 1
  41   22   30 1
  42   23   44 1
  43   24   27 1
  44   24   26 1
  45   24   45 1
  46   25   26 1
  47   25   28 1
  48   25   46 1
  49   25   47 1
  50   26   48 1
  51   26   49 1
  52   27   28 1
  53   27   29 1
  54   27   50 1
  55   28   51 1
  56   28   52 1
  57   29   53 1
  58   30   54 1
  59   30   55 1
  60   30   56 1

#	End of record

