#	Name: ASD08150546
#	Creating user name:	WinNT
#	Creation time:	15. 06. 2019 21:16

#	Modifying user name:	WinNT
#	Modification time:	15. 06. 2019 21:16

#	Program:	/corina/corina34_cracker 3.40 0067  02.08.2006

@<TRIPOS>MOLECULE
ASD08150546
  32   34    0    0    0
SMALL
NO_CHARGES


@<TRIPOS>ATOM
   1 N1            -0.0155     1.2942     0.0092 N.2     
   2 C2             0.0021    -0.0041     0.0020 C.2     
   3 N3             1.1487    -0.7361    -0.0124 N.am    
   4 C4             2.3560    -0.1245    -0.0206 C.2     
   5 C5             2.3702     1.3455    -0.0133 C.ar    
   6 C6             3.5601     2.0709    -0.0212 C.ar    
   7 C7             3.5157     3.4477    -0.0143 C.ar    
   8 C8             2.2978     4.1151     0.0008 C.ar    
   9 C9             1.1111     3.4174     0.0089 C.ar    
  10 C10            1.1297     2.0210     0.0021 C.ar    
  11 O11            3.3901    -0.7667    -0.0331 O.2     
  12 N12            2.2755     5.5951     0.0090 N.pl3   
  13 O13            3.3210     6.2200     0.0023 O.2     
  14 O14            1.2117     6.1881     0.0223 O.2     
  15 C15            1.0791    -2.1353    -0.0184 C.ar    
  16 C16            1.0561    -2.8366     1.1814 C.ar    
  17 C17            0.9875    -4.2168     1.1715 C.ar    
  18 C18            0.9423    -4.8995    -0.0304 C.ar    
  19 C19            0.9656    -4.2042    -1.2252 C.ar    
  20 C20            1.0274    -2.8240    -1.2224 C.ar    
  21 Cl21           1.1139    -1.9800     2.6902 Cl      
  22 C22           -1.3145    -0.7373     0.0106 C.3     
  23 Cl23          -2.6665     0.4554     0.0300 Cl      
  24 H24            4.5102     1.5573    -0.0323 H       
  25 H25            4.4360     4.0130    -0.0204 H       
  26 H26            0.1702     3.9474     0.0210 H       
  27 H27            0.9695    -4.7628     2.1031 H       
  28 H28            0.8890    -5.9781    -0.0357 H       
  29 H29            0.9309    -4.7405    -2.1620 H       
  30 H30            1.0404    -2.2817    -2.1563 H       
  31 H31           -1.3904    -1.3582    -0.8820 H       
  32 H32           -1.3735    -1.3677     0.8979 H       
@<TRIPOS>BOND
   1    1    2 2
   2    1   10 1
   3    2    3 1
   4    2   22 1
   5    3    4 am
   6    3   15 1
   7    4    5 1
   8    4   11 2
   9    5    6 ar
  10    5   10 ar
  11    6    7 ar
  12    6   24 1
  13    7    8 ar
  14    7   25 1
  15    8    9 ar
  16    8   12 1
  17    9   10 ar
  18    9   26 1
  19   12   13 2
  20   12   14 2
  21   15   16 ar
  22   15   20 ar
  23   16   17 ar
  24   16   21 1
  25   17   18 ar
  26   17   27 1
  27   18   19 ar
  28   18   28 1
  29   19   20 ar
  30   19   29 1
  31   20   30 1
  32   22   23 1
  33   22   31 1
  34   22   32 1

#	End of record

