#	Name: ASD05430028
#	Creating user name:	WinNT
#	Creation time:	15. 06. 2019 20:59

#	Modifying user name:	WinNT
#	Modification time:	15. 06. 2019 20:59

#	Program:	/corina/corina34_cracker 3.40 0067  02.08.2006

@<TRIPOS>MOLECULE
ASD05430028
  68   73    0    0    0
SMALL
NO_CHARGES


@<TRIPOS>ATOM
   1 C1             0.0605     1.1741     0.4082 C.ar    
   2 C2             0.0200    -0.0134    -0.3218 C.ar    
   3 C3             1.1653    -0.4858    -0.9499 C.ar    
   4 C4             2.3469     0.2164    -0.8542 C.ar    
   5 C5             2.3950     1.4081    -0.1237 C.ar    
   6 C6             1.2421     1.8839     0.5081 C.ar    
   7 C7             4.8627    -0.0009     0.2145 C.3     
   8 C8             4.8270     1.5012     0.0670 C.2     
   9 C9             3.6566     2.1597    -0.0203 C.2     
  10 C10            6.2118    -0.4651     0.7601 C.3     
  11 C11            6.8317     0.5830     1.6874 C.3     
  12 N12            7.0817     1.8068     0.9283 N.pl3   
  13 C13            6.1088     2.2263     0.0218 C.2     
  14 N14           -1.1790    -0.7320    -0.4217 N.pl3   
  15 C15           -1.9916    -1.0935     0.6050 C.2     
  16 C16           -1.7563    -1.1979    -1.5745 C.2     
  17 C17           -2.8906    -1.8287    -1.2155 C.2     
  18 N18           -3.0095    -1.7498     0.1182 N.2     
  19 C19           -3.8612    -2.5025    -2.1509 C.3     
  20 C20           -0.9497     2.8590     1.7480 C.3     
  21 O21           -1.0638     1.6364     1.0170 O.3     
  22 C22            8.2933     2.6062     1.0948 C.3     
  23 C23            8.6930     3.1678    -0.2742 C.3     
  24 O24            7.5891     3.8426    -0.8686 O.3     
  25 N25            6.3434     3.1852    -0.8102 N.2     
  26 C26            8.0257     3.7404     2.0504 C.ar    
  27 C27            8.9828     4.0999     2.9809 C.ar    
  28 C28            8.7388     5.1401     3.8574 C.ar    
  29 C29            7.5351     5.8224     3.8033 C.ar    
  30 C30            6.5773     5.4614     2.8709 C.ar    
  31 C31            6.8257     4.4243     1.9920 C.ar    
  32 F32            7.2953     6.8392     4.6599 F       
  33 C33            6.0158    -1.7692     1.5424 C.3     
  34 C34            5.4659    -2.8426     0.5987 C.3     
  35 C35            6.4315    -3.0169    -0.5774 C.3     
  36 C36            6.6210    -1.6675    -1.2752 C.3     
  37 O37            7.1034    -0.7082    -0.3329 O.3     
  38 H38            1.1296    -1.4059    -1.5143 H       
  39 H39            3.2361    -0.1537    -1.3430 H       
  40 H40            1.2749     2.8039     1.0729 H       
  41 H41            4.0735    -0.3124     0.8987 H       
  42 H42            4.6931    -0.4604    -0.7593 H       
  43 H43            3.6429     3.2396    -0.0145 H       
  44 H44            6.1451     0.7964     2.5066 H       
  45 H45            7.7720     0.2044     2.0881 H       
  46 H46           -1.8235    -0.8749     1.6492 H       
  47 H47           -1.3749    -1.0809    -2.5782 H       
  48 H48           -3.5750    -3.5462    -2.2812 H       
  49 H49           -4.8658    -2.4509    -1.7311 H       
  50 H50           -3.8447    -1.9979    -3.1169 H       
  51 H51           -0.2140     2.7395     2.5433 H       
  52 H52           -0.6317     3.6560     1.0758 H       
  53 H53           -1.9162     3.1141     2.1825 H       
  54 H54            9.0961     1.9797     1.4834 H       
  55 H55            9.5199     3.8671    -0.1505 H       
  56 H56            9.0080     2.3499    -0.9222 H       
  57 H57            9.9214     3.5674     3.0232 H       
  58 H58            9.4865     5.4206     4.5845 H       
  59 H59            5.6381     5.9929     2.8278 H       
  60 H60            6.0787     4.1426     1.2646 H       
  61 H61            6.9723    -2.0973     1.9494 H       
  62 H62            5.3100    -1.6034     2.3563 H       
  63 H63            5.3713    -3.7864     1.1357 H       
  64 H64            4.4891    -2.5345     0.2259 H       
  65 H65            7.3930    -3.3750    -0.2095 H       
  66 H66            6.0192    -3.7376    -1.2837 H       
  67 H67            7.3422    -1.7755    -2.0854 H       
  68 H68            5.6668    -1.3308    -1.6805 H       
@<TRIPOS>BOND
   1    1    2 ar
   2    1    6 ar
   3    1   21 1
   4    2    3 ar
   5    2   14 1
   6    3    4 ar
   7    3   38 1
   8    4    5 ar
   9    4   39 1
  10    5    6 ar
  11    5    9 1
  12    6   40 1
  13    7    8 1
  14    7   10 1
  15    7   41 1
  16    7   42 1
  17    8    9 2
  18    8   13 1
  19    9   43 1
  20   10   11 1
  21   10   33 1
  22   10   37 1
  23   11   12 1
  24   11   44 1
  25   11   45 1
  26   12   13 1
  27   12   22 1
  28   13   25 2
  29   14   15 1
  30   14   16 1
  31   15   18 2
  32   15   46 1
  33   16   17 2
  34   16   47 1
  35   17   18 1
  36   17   19 1
  37   19   48 1
  38   19   49 1
  39   19   50 1
  40   20   21 1
  41   20   51 1
  42   20   52 1
  43   20   53 1
  44   22   23 1
  45   22   26 1
  46   22   54 1
  47   23   24 1
  48   23   55 1
  49   23   56 1
  50   24   25 1
  51   26   27 ar
  52   26   31 ar
  53   27   28 ar
  54   27   57 1
  55   28   29 ar
  56   28   58 1
  57   29   30 ar
  58   29   32 1
  59   30   31 ar
  60   30   59 1
  61   31   60 1
  62   33   34 1
  63   33   61 1
  64   33   62 1
  65   34   35 1
  66   34   63 1
  67   34   64 1
  68   35   36 1
  69   35   65 1
  70   35   66 1
  71   36   37 1
  72   36   67 1
  73   36   68 1

#	End of record

