#	Name: ASD01810778
#	Creating user name:	WinNT
#	Creation time:	15. 06. 2019 19:25

#	Modifying user name:	WinNT
#	Modification time:	15. 06. 2019 19:25

#	Program:	/corina/corina34_cracker 3.40 0067  02.08.2006

@<TRIPOS>MOLECULE
ASD01810778
  56   59    0    0    0
SMALL
NO_CHARGES


@<TRIPOS>ATOM
   1 C1            -0.0406    -0.0198    -0.0661 C.1     
   2 C2            -0.0532     1.4119    -0.0434 C.ar    
   3 C3             1.1480     2.1237    -0.0305 C.ar    
   4 C4             1.1286     3.5029    -0.0085 C.ar    
   5 C5            -0.0775     4.1809     0.0011 C.ar    
   6 C6            -1.2715     3.4818    -0.0111 C.ar    
   7 C7            -1.2667     2.1027    -0.0399 C.ar    
   8 N8            -0.0306    -1.1557    -0.0842 N.1     
   9 N9            -1.3617     8.2141     0.0660 N.am    
  10 C10           -0.7965     7.7431    -1.2058 C.3     
  11 C11           -0.8152     6.2114    -1.2165 C.3     
  12 C12           -0.0907     5.6876     0.0256 C.3     
  13 C13           -0.8165     6.1707     1.2833 C.3     
  14 C14           -0.7978     7.7021     1.3224 C.3     
  15 C15           -2.3745     9.1032     0.0799 C.2     
  16 C16           -2.9949     9.4971     1.3630 C.ar    
  17 C17           -4.3722     9.3552     1.5473 C.ar    
  18 C18           -4.9526     9.7225     2.7447 C.ar    
  19 C19           -4.1770    10.2323     3.7675 C.ar    
  20 C20           -2.7993    10.3790     3.5965 C.ar    
  21 C21           -2.2062    10.0054     2.3929 C.ar    
  22 O22           -2.7780     9.5812    -0.9623 O.2     
  23 C23           -4.8195    10.6317     5.0709 C.3     
  24 C24           -5.2263     8.8003     0.4367 C.3     
  25 N25           -1.4015    11.7328     6.5761 N.2     
  26 N26           -2.3940    11.3122     5.8759 N.2     
  27 C27           -1.9703    10.9258     4.6932 C.2     
  28 N28           -0.6165    11.1253     4.6688 N.pl3   
  29 C29           -0.2959    11.6401     5.8870 C.2     
  30 C30            1.0822    12.0310     6.3552 C.3     
  31 C31            1.0672    13.4310     6.8096 C.1     
  32 N32            1.0557    14.5115     7.1602 N.1     
  33 H33            2.0902     1.5957    -0.0373 H       
  34 H34            2.0570     4.0547     0.0015 H       
  35 H35           -2.2094     4.0173    -0.0031 H       
  36 H36           -2.1994     1.5583    -0.0543 H       
  37 H37           -1.3952     8.1217    -2.0343 H       
  38 H38            0.2300     8.0967    -1.3026 H       
  39 H39           -1.8471     5.8601    -1.2110 H       
  40 H40           -0.3114     5.8476    -2.1120 H       
  41 H41            0.9338     6.0597     0.0323 H       
  42 H42           -1.8484     5.8199     1.2653 H       
  43 H43           -0.3136     5.7781     2.1671 H       
  44 H44            0.2286     8.0523     1.4317 H       
  45 H45           -1.3974     8.0535     2.1620 H       
  46 H46           -6.0180     9.6112     2.8822 H       
  47 H47           -1.1403    10.1134     2.2570 H       
  48 H48           -4.8286     9.7777     5.7482 H       
  49 H49           -4.2523    11.4464     5.5210 H       
  50 H50           -5.8424    10.9598     4.8862 H       
  51 H51           -5.2117     7.7111     0.4766 H       
  52 H52           -6.2504     9.1545     0.5542 H       
  53 H53           -4.8345     9.1339    -0.5242 H       
  54 H54           -0.0107    10.9383     3.9347 H       
  55 H55            1.3827    11.3846     7.1798 H       
  56 H56            1.7894    11.9234     5.5329 H       
@<TRIPOS>BOND
   1    1    2 1
   2    1    8 3
   3    2    3 ar
   4    2    7 ar
   5    3    4 ar
   6    3   33 1
   7    4    5 ar
   8    4   34 1
   9    5    6 ar
  10    5   12 1
  11    6    7 ar
  12    6   35 1
  13    7   36 1
  14    9   10 1
  15    9   14 1
  16    9   15 am
  17   10   11 1
  18   10   37 1
  19   10   38 1
  20   11   12 1
  21   11   39 1
  22   11   40 1
  23   12   13 1
  24   12   41 1
  25   13   14 1
  26   13   42 1
  27   13   43 1
  28   14   44 1
  29   14   45 1
  30   15   16 1
  31   15   22 2
  32   16   17 ar
  33   16   21 ar
  34   17   18 ar
  35   17   24 1
  36   18   19 ar
  37   18   46 1
  38   19   20 ar
  39   19   23 1
  40   20   21 ar
  41   20   27 1
  42   21   47 1
  43   23   48 1
  44   23   49 1
  45   23   50 1
  46   24   51 1
  47   24   52 1
  48   24   53 1
  49   25   26 1
  50   25   29 2
  51   26   27 2
  52   27   28 1
  53   28   29 1
  54   28   54 1
  55   29   30 1
  56   30   31 1
  57   30   55 1
  58   30   56 1
  59   31   32 3

#	End of record

