#	Name: ASD01884174
#	Creating user name:	WinNT
#	Creation time:	15. 06. 2019 19:47

#	Modifying user name:	WinNT
#	Modification time:	15. 06. 2019 19:47

#	Program:	/corina/corina34_cracker 3.40 0067  02.08.2006

@<TRIPOS>MOLECULE
ASD01884174
  47   50    0    0    0
SMALL
NO_CHARGES


@<TRIPOS>ATOM
   1 C1             0.0034     1.4134     0.0214 C.ar    
   2 C2            -0.0168     0.0308     0.0517 C.ar    
   3 C3             1.1660    -0.6801     0.0255 C.ar    
   4 C4             2.3822    -0.0021    -0.0321 C.ar    
   5 C5             2.3965     1.3914    -0.0629 C.ar    
   6 C6             1.2078     2.0917    -0.0358 C.ar    
   7 C7             3.7076     2.1317    -0.1247 C.3     
   8 C8             3.6565    -0.7604    -0.0601 C.ar    
   9 C9            -1.3328    -0.7009     0.1140 C.3     
  10 C10           -2.4108     0.1279    -0.5874 C.3     
  11 O11           -1.2056    -1.9663    -0.5377 O.3     
  12 C12           -1.7271    -0.9177     1.5763 C.3     
  13 C13            3.8709    -1.7941     0.8489 C.ar    
  14 C14            5.0568    -2.4969     0.8201 C.ar    
  15 C15            6.0333    -2.1560    -0.1312 C.ar    
  16 C16            5.7356    -1.1057    -1.0052 C.ar    
  17 N17            4.5888    -0.4568    -0.9547 N.ar    
  18 N18            7.2747    -2.7310    -0.3242 N.am    
  19 C19            8.0578    -2.2516    -1.2954 C.2     
  20 S20            7.1493    -0.9356    -2.0571 S.3     
  21 C21            7.7233    -3.8424     0.5183 C.3     
  22 C22            7.3002    -5.1678    -0.1182 C.3     
  23 C23            7.7782    -6.4576     0.5518 C.3     
  24 C24            6.3102    -6.0395     0.6571 C.3     
  25 F25            5.8612    -5.5636     1.8936 F       
  26 F26            5.3756    -6.7708    -0.0838 F       
  27 O27            9.1711    -2.6409    -1.5959 O.2     
  28 H28           -0.9247     1.9655     0.0380 H       
  29 H29            1.1491    -1.7597     0.0498 H       
  30 H30            1.2177     3.1714    -0.0595 H       
  31 H31            4.0357     2.2038    -1.1616 H       
  32 H32            3.5792     3.1331     0.2862 H       
  33 H33            4.4564     1.5938     0.4568 H       
  34 H34           -2.1299     0.2823    -1.6292 H       
  35 H35           -3.3627    -0.4014    -0.5424 H       
  36 H36           -2.5079     1.0931    -0.0903 H       
  37 H37           -0.5382    -2.5455    -0.1451 H       
  38 H38           -1.8242     0.0475     2.0734 H       
  39 H39           -2.6789    -1.4469     1.6214 H       
  40 H40           -0.9591    -1.5081     2.0760 H       
  41 H41            3.1108    -2.0439     1.5743 H       
  42 H42            5.2333    -3.2998     1.5205 H       
  43 H43            8.8091    -3.8136     0.6099 H       
  44 H44            7.2728    -3.7538     1.5068 H       
  45 H45            7.2237    -5.1640    -1.2055 H       
  46 H46            8.0158    -7.3024    -0.0947 H       
  47 H47            8.3942    -6.3618     1.4460 H       
@<TRIPOS>BOND
   1    1    2 ar
   2    1    6 ar
   3    1   28 1
   4    2    3 ar
   5    2    9 1
   6    3    4 ar
   7    3   29 1
   8    4    5 ar
   9    4    8 1
  10    5    6 ar
  11    5    7 1
  12    6   30 1
  13    7   31 1
  14    7   32 1
  15    7   33 1
  16    8   13 ar
  17    8   17 ar
  18    9   10 1
  19    9   11 1
  20    9   12 1
  21   10   34 1
  22   10   35 1
  23   10   36 1
  24   11   37 1
  25   12   38 1
  26   12   39 1
  27   12   40 1
  28   13   14 ar
  29   13   41 1
  30   14   15 ar
  31   14   42 1
  32   15   16 ar
  33   15   18 1
  34   16   17 ar
  35   16   20 1
  36   18   19 am
  37   18   21 1
  38   19   20 1
  39   19   27 2
  40   21   22 1
  41   21   43 1
  42   21   44 1
  43   22   23 1
  44   22   24 1
  45   22   45 1
  46   23   24 1
  47   23   46 1
  48   23   47 1
  49   24   25 1
  50   24   26 1

#	End of record

