#	Name: ASD04942003
#	Creating user name:	WinNT
#	Creation time:	15. 06. 2019 20:56

#	Modifying user name:	WinNT
#	Modification time:	15. 06. 2019 20:56

#	Program:	/corina/corina34_cracker 3.40 0067  02.08.2006

@<TRIPOS>MOLECULE
ASD04942003
  54   57    0    0    0
SMALL
NO_CHARGES


@<TRIPOS>ATOM
   1 C1            -0.0167     1.3826     0.0096 C.ar    
   2 C2             0.0021    -0.0041     0.0020 C.ar    
   3 C3             1.1973    -0.6903    -0.0126 C.ar    
   4 C4             2.4003     0.0087    -0.0203 C.ar    
   5 C5             2.3790     1.4126    -0.0130 C.ar    
   6 C6             1.1640     2.0934     0.0022 C.ar    
   7 N7             3.7198    -0.3981    -0.0347 N.pl3   
   8 C8             4.5520     0.6799    -0.0370 C.2     
   9 C9             3.7890     1.8454    -0.0240 C.2     
  10 C10            4.2691     3.1742    -0.0214 C.2     
  11 C11            3.2977     4.3263    -0.0066 C.3     
  12 N12            4.0410     5.5934    -0.0066 N.3     
  13 C13            3.1402     6.7320    -0.2307 C.3     
  14 O14            5.4646     3.3880    -0.0311 O.2     
  15 C15            4.7989     5.7592     1.2408 C.3     
  16 C16            3.9546     7.9775    -0.4689 C.2     
  17 N17            3.3367     9.1529    -0.6990 N.am    
  18 O18            5.1660     7.9220    -0.4535 O.2     
  19 C19            4.1105    10.3822    -0.9342 C.3     
  20 C20            3.5829    11.0490    -2.2097 C.3     
  21 O21            2.1649    11.2008    -2.1095 O.3     
  22 C22            1.4499     9.9670    -2.0088 C.3     
  23 C23            1.8682     9.2437    -0.7285 C.3     
  24 C24            6.0263     0.6225    -0.0503 C.ar    
  25 C25            6.6869    -0.2540    -0.9149 C.ar    
  26 C26            8.0652    -0.3018    -0.9222 C.ar    
  27 C27            8.7937     0.5156    -0.0760 C.ar    
  28 C28            8.1462     1.3859     0.7833 C.ar    
  29 C29            6.7685     1.4486     0.7975 C.ar    
  30 H30           -0.9605     1.9076     0.0170 H       
  31 H31           -0.9288    -0.5516     0.0079 H       
  32 H32            1.2001    -1.7703    -0.0177 H       
  33 H33            1.1472     3.1732     0.0074 H       
  34 H34            4.0131    -1.3227    -0.0421 H       
  35 H35            2.6627     4.2775    -0.8911 H       
  36 H36            2.6788     4.2682     0.8887 H       
  37 H37            2.5149     6.5348    -1.1014 H       
  38 H38            2.5082     6.8733     0.6460 H       
  39 H39            5.5079     4.9382     1.3470 H       
  40 H40            5.3397     6.7052     1.2143 H       
  41 H41            4.1114     5.7574     2.0866 H       
  42 H42            3.9895    11.0596    -0.0888 H       
  43 H43            5.1646    10.1343    -1.0586 H       
  44 H44            4.0466    12.0285    -2.3270 H       
  45 H45            3.8224    10.4265    -3.0718 H       
  46 H46            0.3789    10.1681    -1.9815 H       
  47 H47            1.6816     9.3405    -2.8701 H       
  48 H48            1.4367     8.2429    -0.7146 H       
  49 H49            1.5231     9.8050     0.1398 H       
  50 H50            6.1195    -0.8927    -1.5756 H       
  51 H51            8.5772    -0.9791    -1.5897 H       
  52 H52            9.8729     0.4739    -0.0860 H       
  53 H53            8.7212     2.0204     1.4415 H       
  54 H54            6.2646     2.1317     1.4652 H       
@<TRIPOS>BOND
   1    1    2 ar
   2    1    6 ar
   3    1   30 1
   4    2    3 ar
   5    2   31 1
   6    3    4 ar
   7    3   32 1
   8    4    5 ar
   9    4    7 1
  10    5    6 ar
  11    5    9 1
  12    6   33 1
  13    7    8 1
  14    7   34 1
  15    8    9 2
  16    8   24 1
  17    9   10 1
  18   10   11 1
  19   10   14 2
  20   11   12 1
  21   11   35 1
  22   11   36 1
  23   12   13 1
  24   12   15 1
  25   13   16 1
  26   13   37 1
  27   13   38 1
  28   15   39 1
  29   15   40 1
  30   15   41 1
  31   16   17 am
  32   16   18 2
  33   17   19 1
  34   17   23 1
  35   19   20 1
  36   19   42 1
  37   19   43 1
  38   20   21 1
  39   20   44 1
  40   20   45 1
  41   21   22 1
  42   22   23 1
  43   22   46 1
  44   22   47 1
  45   23   48 1
  46   23   49 1
  47   24   25 ar
  48   24   29 ar
  49   25   26 ar
  50   25   50 1
  51   26   27 ar
  52   26   51 1
  53   27   28 ar
  54   27   52 1
  55   28   29 ar
  56   28   53 1
  57   29   54 1

#	End of record

