#	Name: ASD04882417
#	Creating user name:	WinNT
#	Creation time:	15. 06. 2019 20:54

#	Modifying user name:	WinNT
#	Modification time:	15. 06. 2019 20:54

#	Program:	/corina/corina34_cracker 3.40 0067  02.08.2006

@<TRIPOS>MOLECULE
ASD04882417
  78   84    0    0    0
SMALL
NO_CHARGES


@<TRIPOS>ATOM
   1 C1            -0.0215     1.4012    -0.0092 C.ar    
   2 C2            -0.0116     0.0036    -0.0052 C.ar    
   3 C3            -1.2093    -0.7020    -0.0164 C.ar    
   4 C4            -2.4097    -0.0270    -0.0315 C.ar    
   5 C5            -2.4268     1.3707    -0.0356 C.ar    
   6 C6            -1.2239     2.0826    -0.0186 C.ar    
   7 N7             1.1998    -0.6830     0.0095 N.3     
   8 C8             1.3071    -1.5362     1.2013 C.3     
   9 C9             1.3723    -1.4731    -1.2175 C.3     
  10 C10            2.7462    -2.1473    -1.1981 C.3     
  11 N11            2.8535    -3.0005    -0.0063 N.3     
  12 C12            2.6810    -2.2104     1.2207 C.3     
  13 C13           -3.7124     2.0935    -0.0527 C.2     
  14 O14           -3.7263     3.3095    -0.0562 O.2     
  15 N15           -4.8717     1.4063    -0.0643 N.am    
  16 N16            1.1866     2.1110     0.0021 N.am    
  17 C17            1.2296     3.3599     0.5068 C.2     
  18 O18            0.2069     3.8985     0.8853 O.2     
  19 C19            2.5162     4.0732     0.6000 C.2     
  20 N20            3.7330     3.5990     0.2178 N.2     
  21 C21            4.6245     4.5143     0.4542 C.2     
  22 O22            4.0246     5.5885     0.9864 O.3     
  23 C23            2.7098     5.3324     1.0790 C.2     
  24 C24            4.0685    -3.6892     0.0085 C.ar    
  25 C25            5.2670    -2.9866     0.0192 C.ar    
  26 C26            4.0812    -5.0780     0.0182 C.ar    
  27 C27            5.2846    -5.7560     0.0328 C.ar    
  28 C28            6.4755    -5.0537     0.0382 C.ar    
  29 C29            6.4664    -3.6706     0.0338 C.ar    
  30 C30            2.7836    -5.8444     0.0134 C.3     
  31 C31            6.0999     4.3879     0.1747 C.3     
  32 C32            6.7246     5.3955    -0.7925 C.3     
  33 C33            7.0167     5.4915     0.7063 C.3     
  34 C34           -6.0867     2.0893    -0.0805 C.2     
  35 C35           -6.2507     3.4408    -0.0866 C.2     
  36 C36           -7.6225     3.7059    -0.1041 C.2     
  37 N37           -8.2644     2.5659    -0.1084 N.2     
  38 N38           -7.3233     1.5284    -0.0989 N.pl3   
  39 C39           -7.6204     0.0938    -0.1005 C.3     
  40 C40           -8.4782    -0.2808     1.1236 C.3     
  41 O41           -9.7403    -0.7605     0.6304 O.3     
  42 C42           -9.5028    -1.2885    -0.6922 C.3     
  43 C43           -8.5091    -0.2741    -1.3136 C.3     
  44 H44           -1.1985    -1.7819    -0.0137 H       
  45 H45           -3.3385    -0.5780    -0.0405 H       
  46 H46           -1.2339     3.1625    -0.0213 H       
  47 H47            1.1886    -0.9264     2.0969 H       
  48 H48            0.5284    -2.2984     1.1742 H       
  49 H49            0.5943    -2.2346    -1.2721 H       
  50 H50            1.3013    -0.8174    -2.0853 H       
  51 H51            2.8647    -2.7571    -2.0937 H       
  52 H52            3.5249    -1.3852    -1.1710 H       
  53 H53            3.4590    -1.4489     1.2753 H       
  54 H54            2.7520    -2.8662     2.0885 H       
  55 H55           -4.8606     0.4363    -0.0615 H       
  56 H56            1.9919     1.7035    -0.3533 H       
  57 H57            1.9513     5.9964     1.4664 H       
  58 H58            5.2606    -1.9066     0.0158 H       
  59 H59            5.2952    -6.8359     0.0404 H       
  60 H60            7.4150    -5.5862     0.0503 H       
  61 H61            7.3985    -3.1251     0.0380 H       
  62 H62            2.4788    -6.0363    -1.0154 H       
  63 H63            2.9193    -6.7919     0.5349 H       
  64 H64            2.0142    -5.2593     0.5172 H       
  65 H65            6.4908     3.3705     0.1634 H       
  66 H66            7.5267     5.0410    -1.4399 H       
  67 H67            6.0683     6.1498    -1.2267 H       
  68 H68            6.5526     6.3090     1.2581 H       
  69 H69            8.0109     5.2002     1.0449 H       
  70 H70           -5.4607     4.1772    -0.0788 H       
  71 H71           -8.0761     4.6860    -0.1123 H       
  72 H72           -6.6974    -0.4860    -0.1115 H       
  73 H73           -7.9828    -1.0639     1.6977 H       
  74 H74           -8.6346     0.5978     1.7495 H       
  75 H75           -9.0534    -2.2799    -0.6347 H       
  76 H76          -10.4293    -1.3186    -1.2656 H       
  77 H77           -9.0342     0.6032    -1.6914 H       
  78 H78           -7.9181    -0.7412    -2.1013 H       
@<TRIPOS>BOND
   1    1    2 ar
   2    1   16 1
   3    1    6 ar
   4    2    3 ar
   5    2    7 1
   6    3    4 ar
   7    3   44 1
   8    4    5 ar
   9    4   45 1
  10    5    6 ar
  11    5   13 1
  12    6   46 1
  13    7    8 1
  14    7    9 1
  15    8   12 1
  16    8   47 1
  17    8   48 1
  18    9   10 1
  19    9   49 1
  20    9   50 1
  21   10   11 1
  22   10   51 1
  23   10   52 1
  24   11   12 1
  25   11   24 1
  26   12   53 1
  27   12   54 1
  28   13   14 2
  29   13   15 am
  30   15   34 1
  31   15   55 1
  32   16   17 am
  33   16   56 1
  34   17   18 2
  35   17   19 1
  36   19   20 1
  37   19   23 2
  38   20   21 2
  39   21   22 1
  40   21   31 1
  41   22   23 1
  42   23   57 1
  43   24   25 ar
  44   24   26 ar
  45   25   29 ar
  46   25   58 1
  47   26   27 ar
  48   26   30 1
  49   27   28 ar
  50   27   59 1
  51   28   29 ar
  52   28   60 1
  53   29   61 1
  54   30   62 1
  55   30   63 1
  56   30   64 1
  57   31   32 1
  58   31   33 1
  59   31   65 1
  60   32   33 1
  61   32   66 1
  62   32   67 1
  63   33   68 1
  64   33   69 1
  65   34   35 2
  66   34   38 1
  67   35   36 1
  68   35   70 1
  69   36   37 2
  70   36   71 1
  71   37   38 1
  72   38   39 1
  73   39   40 1
  74   39   43 1
  75   39   72 1
  76   40   41 1
  77   40   73 1
  78   40   74 1
  79   41   42 1
  80   42   43 1
  81   42   75 1
  82   42   76 1
  83   43   77 1
  84   43   78 1

#	End of record

