#	Name: ASD09740187
#	Creating user name:	WinNT
#	Creation time:	15. 06. 2019 21:22

#	Modifying user name:	WinNT
#	Modification time:	15. 06. 2019 21:22

#	Program:	/corina/corina34_cracker 3.40 0067  02.08.2006

@<TRIPOS>MOLECULE
ASD09740187
  40   42    0    0    0
SMALL
NO_CHARGES


@<TRIPOS>ATOM
   1 O1            -0.0144     1.2085     0.0087 O.3     
   2 N2             0.0021    -0.0041     0.0020 N.2     
   3 C3             1.2422     1.6827    -0.0008 C.2     
   4 N4             2.0467     0.6339    -0.0141 N.2     
   5 C5             1.2347    -0.4431    -0.0121 C.2     
   6 C6             1.6611    -1.8651    -0.0238 C.ar    
   7 C7             1.6460     3.0986     0.0026 C.2     
   8 C8             3.0162    -2.1879    -0.0385 C.ar    
   9 C9             0.7076    -2.8799    -0.0144 C.ar    
  10 C10            1.1115    -4.2048    -0.0255 C.ar    
  11 C11            2.4638    -4.5181    -0.0454 C.ar    
  12 C12            3.4104    -3.5112    -0.0494 C.ar    
  13 C13            2.9009    -5.9603    -0.0564 C.3     
  14 O14            0.1840    -5.1981    -0.0163 O.3     
  15 C15           -1.1892    -4.8032     0.0047 C.3     
  16 C16            2.9378     3.5828    -0.0081 C.2     
  17 C17            2.8680     4.9743    -0.0001 C.2     
  18 N18            1.6087     5.3325     0.0147 N.2     
  19 N19            0.8123     4.1805     0.0108 N.pl3   
  20 C20           -0.6521     4.1427     0.0232 C.3     
  21 C21           -1.1745     4.1437    -1.4148 C.3     
  22 C22            4.0474     5.9124    -0.0072 C.3     
  23 H23            3.7583    -1.4033    -0.0417 H       
  24 H24           -0.3441    -2.6347     0.0018 H       
  25 H25            4.4612    -3.7599    -0.0650 H       
  26 H26            2.9919    -6.3045    -1.0866 H       
  27 H27            3.8650    -6.0516     0.4437 H       
  28 H28            2.1618    -6.5679     0.4658 H       
  29 H29           -1.4090    -4.2054    -0.8799 H       
  30 H30           -1.8224    -5.6904     0.0101 H       
  31 H31           -1.3838    -4.2126     0.8999 H       
  32 H32            3.8405     2.9901    -0.0202 H       
  33 H33           -0.9879     3.2386     0.5312 H       
  34 H34           -1.0338     5.0179     0.5490 H       
  35 H35           -0.7929     3.2685    -1.9406 H       
  36 H36           -2.2641     4.1155    -1.4056 H       
  37 H37           -0.8387     5.0478    -1.9227 H       
  38 H38            4.3212     6.1440    -1.0365 H       
  39 H39            3.7831     6.8324     0.5142 H       
  40 H40            4.8910     5.4394     0.4955 H       
@<TRIPOS>BOND
   1    1    2 1
   2    1    3 1
   3    2    5 2
   4    3    4 2
   5    3    7 1
   6    4    5 1
   7    5    6 1
   8    6    8 ar
   9    6    9 ar
  10    7   16 2
  11    7   19 1
  12    8   12 ar
  13    8   23 1
  14    9   10 ar
  15    9   24 1
  16   10   11 ar
  17   10   14 1
  18   11   12 ar
  19   11   13 1
  20   12   25 1
  21   13   26 1
  22   13   27 1
  23   13   28 1
  24   14   15 1
  25   15   29 1
  26   15   30 1
  27   15   31 1
  28   16   17 1
  29   16   32 1
  30   17   18 2
  31   17   22 1
  32   18   19 1
  33   19   20 1
  34   20   21 1
  35   20   33 1
  36   20   34 1
  37   21   35 1
  38   21   36 1
  39   21   37 1
  40   22   38 1
  41   22   39 1
  42   22   40 1

#	End of record

