#	Name: ASD08150146
#	Creating user name:	WinNT
#	Creation time:	15. 06. 2019 21:15

#	Modifying user name:	WinNT
#	Modification time:	15. 06. 2019 21:15

#	Program:	/corina/corina34_cracker 3.40 0067  02.08.2006

@<TRIPOS>MOLECULE
ASD08150146
  15   15    0    0    0
SMALL
NO_CHARGES


@<TRIPOS>ATOM
   1 N1            -0.0167     1.3803     0.0096 N.pl3   
   2 C2             0.0021    -0.0041     0.0020 C.ar    
   3 N3             1.1672    -0.6348    -0.0125 N.ar    
   4 C4             1.2208    -1.9563    -0.0197 C.ar    
   5 C5             0.0383    -2.6812    -0.0118 C.ar    
   6 C6            -1.1630    -1.9889     0.0034 C.ar    
   7 N7            -1.1452    -0.6661     0.0149 N.ar    
   8 C8             2.5502    -2.6657    -0.0367 C.3     
   9 F9             3.5814    -1.7266     0.0726 F       
  10 F10            2.6164    -3.5582     1.0387 F       
  11 F11            2.6871    -3.3711    -1.2371 F       
  12 Br12           0.0639    -4.5720    -0.0222 Br      
  13 H13            0.8167     1.8767     0.0043 H       
  14 H14           -0.8632     1.8538     0.0162 H       
  15 H15           -2.1017    -2.5230     0.0095 H       
@<TRIPOS>BOND
   1    1    2 1
   2    1   13 1
   3    1   14 1
   4    2    3 ar
   5    2    7 ar
   6    3    4 ar
   7    4    5 ar
   8    4    8 1
   9    5    6 ar
  10    5   12 1
  11    6    7 ar
  12    6   15 1
  13    8    9 1
  14    8   10 1
  15    8   11 1

#	End of record

