#	Name: ASD01883635
#	Creating user name:	WinNT
#	Creation time:	15. 06. 2019 19:46

#	Modifying user name:	WinNT
#	Modification time:	15. 06. 2019 19:46

#	Program:	/corina/corina34_cracker 3.40 0067  02.08.2006

@<TRIPOS>MOLECULE
ASD01883635
  53   56    0    0    0
SMALL
NO_CHARGES


@<TRIPOS>ATOM
   1 C1            -0.0253     1.3856    -0.1681 C.2     
   2 C2             0.0021    -0.0041     0.0020 C.2     
   3 C3            -1.2103    -0.6937     0.1891 C.2     
   4 C4            -2.3863    -0.0386     0.2059 C.2     
   5 N5            -2.4608     1.3139     0.0438 N.pl3   
   6 C6            -1.3255     2.0606    -0.1372 C.2     
   7 C7            -3.5191     2.1887     0.0226 C.2     
   8 C8            -3.0112     3.4222    -0.1734 C.2     
   9 N9            -1.6795     3.3261    -0.2671 N.2     
  10 C10           -4.9750     1.8361     0.1869 C.3     
  11 C11           -5.6161     1.6612    -1.1913 C.3     
  12 N12            1.2030    -0.6889    -0.0141 N.pl3   
  13 C13            1.4833    -1.6841    -1.0580 C.3     
  14 C14            1.8826    -3.0025    -0.3878 C.3     
  15 C15            3.0494    -2.7505     0.5699 C.3     
  16 C16            2.6143    -1.7674     1.6591 C.3     
  17 C17            2.2256    -0.4309     1.0089 C.3     
  18 C18            3.4672    -4.0514     1.2055 C.ar    
  19 C19            4.7545    -4.5238     1.0312 C.ar    
  20 C20            5.1377    -5.7172     1.6143 C.ar    
  21 C21            4.2337    -6.4379     2.3720 C.ar    
  22 C22            2.9466    -5.9651     2.5470 C.ar    
  23 C23            2.5647    -4.7695     1.9676 C.ar    
  24 C24           -7.0942     1.3032    -1.0245 C.3     
  25 C25           -7.7353     1.1283    -2.4026 C.3     
  26 F26           -7.0821     0.1024    -3.0940 F       
  27 F27           -9.0869     0.8010    -2.2501 F       
  28 F28           -7.6230     2.3218    -3.1240 F       
  29 C29            1.1844     2.1273    -0.3609 C.1     
  30 N30            2.1441     2.7156    -0.5138 N.1     
  31 H31           -1.1971    -1.7656     0.3209 H       
  32 H32           -3.2973    -0.6002     0.3515 H       
  33 H33           -3.5833     4.3358    -0.2402 H       
  34 H34           -5.0624     0.9062     0.7489 H       
  35 H35           -5.4839     2.6354     0.7255 H       
  36 H36           -5.5286     2.5910    -1.7533 H       
  37 H37           -5.1072     0.8618    -1.7299 H       
  38 H38            0.5912    -1.8382    -1.6649 H       
  39 H39            2.3003    -1.3324    -1.6881 H       
  40 H40            1.0338    -3.3991     0.1693 H       
  41 H41            2.1859    -3.7206    -1.1497 H       
  42 H42            3.8894    -2.3308     0.0164 H       
  43 H43            1.7586    -2.1756     2.1969 H       
  44 H44            3.4384    -1.6064     2.3541 H       
  45 H45            3.1044     0.0209     0.5489 H       
  46 H46            1.8215     0.2403     1.7667 H       
  47 H47            5.4609    -3.9607     0.4393 H       
  48 H48            6.1433    -6.0866     1.4775 H       
  49 H49            4.5329    -7.3706     2.8269 H       
  50 H50            2.2401    -6.5283     3.1387 H       
  51 H51            1.5591    -4.4001     2.1043 H       
  52 H52           -7.1817     0.3734    -0.4624 H       
  53 H53           -7.6031     2.1026    -0.4858 H       
@<TRIPOS>BOND
   1    1    2 2
   2    1   29 1
   3    1    6 1
   4    2    3 1
   5    2   12 1
   6    3    4 2
   7    3   31 1
   8    4    5 1
   9    4   32 1
  10    5    6 1
  11    5    7 1
  12    6    9 2
  13    7    8 2
  14    7   10 1
  15    8    9 1
  16    8   33 1
  17   10   11 1
  18   10   34 1
  19   10   35 1
  20   11   24 1
  21   11   36 1
  22   11   37 1
  23   12   13 1
  24   12   17 1
  25   13   14 1
  26   13   38 1
  27   13   39 1
  28   14   15 1
  29   14   40 1
  30   14   41 1
  31   15   16 1
  32   15   18 1
  33   15   42 1
  34   16   17 1
  35   16   43 1
  36   16   44 1
  37   17   45 1
  38   17   46 1
  39   18   19 ar
  40   18   23 ar
  41   19   20 ar
  42   19   47 1
  43   20   21 ar
  44   20   48 1
  45   21   22 ar
  46   21   49 1
  47   22   23 ar
  48   22   50 1
  49   23   51 1
  50   24   25 1
  51   24   52 1
  52   24   53 1
  53   25   26 1
  54   25   27 1
  55   25   28 1
  56   29   30 3

#	End of record

