#	Name: ASD01911309
#	Creating user name:	WinNT
#	Creation time:	15. 06. 2019 19:57

#	Modifying user name:	WinNT
#	Modification time:	15. 06. 2019 19:57

#	Program:	/corina/corina34_cracker 3.40 0067  02.08.2006

@<TRIPOS>MOLECULE
ASD01911309
  30   31    0    0    0
SMALL
NO_CHARGES


@<TRIPOS>ATOM
   1 C1            -0.0167     1.3796     0.0096 C.ar    
   2 C2             0.0021    -0.0041     0.0020 C.ar    
   3 C3             1.2058    -0.6865    -0.0127 C.ar    
   4 C4             2.3967     0.0091    -0.0200 C.ar    
   5 C5             2.3857     1.4065    -0.0128 C.ar    
   6 C6             1.1662     2.0887     0.0021 C.ar    
   7 C7             3.6180     2.1358    -0.0198 C.1     
   8 C8             4.6284     2.7337    -0.0255 C.1     
   9 C9             5.8607     3.4630    -0.0324 C.ar    
  10 C10            5.8672     4.8642    -0.0254 C.ar    
  11 N11            7.0252     5.4990    -0.0317 N.ar    
  12 C12            8.1690     4.8290    -0.0445 C.ar    
  13 N13            8.2058     3.5038    -0.0515 N.ar    
  14 C14            7.0921     2.7942    -0.0405 C.ar    
  15 N15            9.3593     5.5333    -0.0512 N.pl3   
  16 C16            9.3436     6.9982    -0.0442 C.3     
  17 C17           10.6358     4.8145    -0.0654 C.3     
  18 H18           -0.9600     1.9055     0.0170 H       
  19 H19           -0.9274    -0.5541     0.0080 H       
  20 H20            1.2128    -1.7664    -0.0182 H       
  21 H21            3.3355    -0.5247    -0.0307 H       
  22 H22            1.1500     3.1686     0.0074 H       
  23 H23            4.9393     5.4167    -0.0153 H       
  24 H24            7.1297     1.7149    -0.0463 H       
  25 H25            9.3484     7.3567     0.9852 H       
  26 H26           10.2253     7.3735    -0.5637 H       
  27 H27            8.4455     7.3544    -0.5488 H       
  28 H28           10.6927     4.1927    -0.9588 H       
  29 H29           11.4566     5.5317    -0.0689 H       
  30 H30           10.7077     4.1844     0.8211 H       
@<TRIPOS>BOND
   1    1    2 ar
   2    1    6 ar
   3    1   18 1
   4    2    3 ar
   5    2   19 1
   6    3    4 ar
   7    3   20 1
   8    4    5 ar
   9    4   21 1
  10    5    6 ar
  11    5    7 1
  12    6   22 1
  13    7    8 3
  14    8    9 1
  15    9   10 ar
  16    9   14 ar
  17   10   11 ar
  18   10   23 1
  19   11   12 ar
  20   12   13 ar
  21   12   15 1
  22   13   14 ar
  23   14   24 1
  24   15   16 1
  25   15   17 1
  26   16   25 1
  27   16   26 1
  28   16   27 1
  29   17   28 1
  30   17   29 1
  31   17   30 1

#	End of record

