#	Name: ASD04880996
#	Creating user name:	WinNT
#	Creation time:	15. 06. 2019 20:53

#	Modifying user name:	WinNT
#	Modification time:	15. 06. 2019 20:53

#	Program:	/corina/corina34_cracker 3.40 0067  02.08.2006

@<TRIPOS>MOLECULE
ASD04880996
  83   87    0    0    0
SMALL
NO_CHARGES


@<TRIPOS>ATOM
   1 C1             0.1419     1.4617     0.5865 C.2     
   2 C2             0.1727    -0.0042     0.5982 C.2     
   3 O3            -0.7098    -0.6270     1.1593 O.2     
   4 N4             1.1783    -0.6620    -0.0122 N.am    
   5 C5             1.2533    -2.0585     0.0697 C.ar    
   6 C6             2.4880    -2.7015    -0.0592 C.ar    
   7 C7             2.5640    -4.0868     0.0224 C.ar    
   8 C8             1.4237    -4.8313     0.2305 C.ar    
   9 C9             0.1864    -4.1950     0.3602 C.ar    
  10 C10            0.1079    -2.8012     0.2838 C.ar    
  11 C11           -1.0347    -4.9925     0.5825 C.2     
  12 O12           -2.1109    -4.4379     0.6953 O.2     
  13 N13           -0.9573    -6.3357     0.6606 N.am    
  14 C14           -2.1699    -7.1277     0.8813 C.3     
  15 C15           -1.8070    -8.6133     0.9292 C.3     
  16 N16            3.6431    -1.9530    -0.2701 N.3     
  17 C17            4.5757    -2.0949     0.8568 C.3     
  18 C18            5.7933    -1.1974     0.6240 C.3     
  19 N19            6.4400    -1.5721    -0.6414 N.3     
  20 C20            5.5074    -1.4302    -1.7683 C.3     
  21 C21            4.2898    -2.3277    -1.5354 C.3     
  22 C22           -3.0734    -9.4404     1.1598 C.3     
  23 N23           -2.7260   -10.8628     1.2056 N.am    
  24 C24           -2.3634   -11.5877     2.4291 C.3     
  25 C25           -1.6740   -12.8848     1.9507 C.3     
  26 C26           -2.2900   -13.0690     0.5444 C.3     
  27 C27           -2.7040   -11.6731     0.1333 C.2     
  28 O28            1.0522     2.2692     0.0038 O.3     
  29 C29            0.7002     3.5472     0.1957 C.2     
  30 C30           -0.4474     3.5798     0.9082 C.2     
  31 C31           -0.8163     2.2488     1.1585 C.2     
  32 C32            1.4594     4.7506    -0.3010 C.3     
  33 C33            6.2065    -1.8446    -3.0646 C.3     
  34 O34           -2.9743   -11.3340    -0.9993 O.2     
  35 C35            7.6586    -0.7825    -0.8639 C.3     
  36 C36            8.6845    -1.1366     0.1817 C.ar    
  37 C37            8.8661    -0.3146     1.2783 C.ar    
  38 C38            9.8070    -0.6393     2.2372 C.ar    
  39 C39           10.5663    -1.7866     2.0999 C.ar    
  40 C40           10.3842    -2.6088     1.0041 C.ar    
  41 C41            9.4399    -2.2862     0.0471 C.ar    
  42 C42            9.2376    -3.1855    -1.1451 C.3     
  43 F43           10.1097    -4.2762    -1.0599 F       
  44 F44            7.9164    -3.6452    -1.1637 F       
  45 F45            9.4990    -2.4701    -2.3186 F       
  46 H46            1.8500    -0.1685    -0.5084 H       
  47 H47            3.5191    -4.5809    -0.0779 H       
  48 H48            1.4860    -5.9077     0.2931 H       
  49 H49           -0.8464    -2.3063     0.3877 H       
  50 H50           -0.0988    -6.7781     0.5706 H       
  51 H51           -2.6280    -6.8350     1.8260 H       
  52 H52           -2.8723    -6.9513     0.0668 H       
  53 H53           -1.3489    -8.9060    -0.0155 H       
  54 H54           -1.1046    -8.7897     1.7438 H       
  55 H55            4.0776    -1.7997     1.7804 H       
  56 H56            4.8985    -3.1332     0.9332 H       
  57 H57            5.4738    -0.1565     0.5748 H       
  58 H58            6.4998    -1.3229     1.4445 H       
  59 H59            5.1846    -0.3919    -1.8446 H       
  60 H60            4.6093    -3.3687    -1.4862 H       
  61 H61            3.5833    -2.2022    -2.3559 H       
  62 H62           -3.5316    -9.1476     2.1045 H       
  63 H63           -3.7759    -9.2640     0.3452 H       
  64 H64           -1.6742   -10.9936     3.0293 H       
  65 H65           -3.2574   -11.8261     3.0053 H       
  66 H66           -0.5938   -12.7526     1.8892 H       
  67 H67           -1.9265   -13.7230     2.6001 H       
  68 H68           -1.5488   -13.4693    -0.1472 H       
  69 H69           -3.1609   -13.7226     0.5921 H       
  70 H70           -0.9824     4.4638     1.2227 H       
  71 H71           -1.6877     1.9124     1.7006 H       
  72 H72            2.3452     4.4223    -0.8447 H       
  73 H73            0.8213     5.3343    -0.9644 H       
  74 H74            1.7607     5.3654     0.5471 H       
  75 H75            6.5282    -2.8832    -2.9880 H       
  76 H76            5.5146    -1.7392    -3.9002 H       
  77 H77            7.0748    -1.2065    -3.2292 H       
  78 H78            8.0581    -1.0020    -1.8540 H       
  79 H79            7.4212     0.2791    -0.7951 H       
  80 H80            8.2729     0.5816     1.3856 H       
  81 H81            9.9494     0.0032     3.0935 H       
  82 H82           11.3021    -2.0400     2.8488 H       
  83 H83           10.9775    -3.5048     0.8967 H       
@<TRIPOS>BOND
   1    1    2 1
   2    1   28 1
   3    1   31 2
   4    2    3 2
   5    2    4 am
   6    4    5 1
   7    4   46 1
   8    5    6 ar
   9    5   10 ar
  10    6    7 ar
  11    6   16 1
  12    7    8 ar
  13    7   47 1
  14    8    9 ar
  15    8   48 1
  16    9   10 ar
  17    9   11 1
  18   10   49 1
  19   11   12 2
  20   11   13 am
  21   13   14 1
  22   13   50 1
  23   14   15 1
  24   14   51 1
  25   14   52 1
  26   15   22 1
  27   15   53 1
  28   15   54 1
  29   16   17 1
  30   16   21 1
  31   17   18 1
  32   17   55 1
  33   17   56 1
  34   18   19 1
  35   18   57 1
  36   18   58 1
  37   19   20 1
  38   19   35 1
  39   20   21 1
  40   20   33 1
  41   20   59 1
  42   21   60 1
  43   21   61 1
  44   22   23 1
  45   22   62 1
  46   22   63 1
  47   23   24 1
  48   23   27 am
  49   24   25 1
  50   24   64 1
  51   24   65 1
  52   25   26 1
  53   25   66 1
  54   25   67 1
  55   26   27 1
  56   26   68 1
  57   26   69 1
  58   27   34 2
  59   28   29 1
  60   29   30 2
  61   29   32 1
  62   30   31 1
  63   30   70 1
  64   31   71 1
  65   32   72 1
  66   32   73 1
  67   32   74 1
  68   33   75 1
  69   33   76 1
  70   33   77 1
  71   35   36 1
  72   35   78 1
  73   35   79 1
  74   36   37 ar
  75   36   41 ar
  76   37   38 ar
  77   37   80 1
  78   38   39 ar
  79   38   81 1
  80   39   40 ar
  81   39   82 1
  82   40   41 ar
  83   40   83 1
  84   41   42 1
  85   42   43 1
  86   42   44 1
  87   42   45 1

#	End of record

