#	Name: ASD01913127
#	Creating user name:	WinNT
#	Creation time:	15. 06. 2019 20:01

#	Modifying user name:	WinNT
#	Modification time:	15. 06. 2019 20:01

#	Program:	/corina/corina34_cracker 3.40 0067  02.08.2006

@<TRIPOS>MOLECULE
ASD01913127
  44   47    0    0    0
SMALL
NO_CHARGES


@<TRIPOS>ATOM
   1 C1            -0.9152     1.7066    -0.1940 C.ar    
   2 C2            -0.7391     0.2332    -0.1922 C.2     
   3 N3            -1.7233    -0.6909    -0.1214 N.2     
   4 C4            -1.1848    -1.8752    -0.1452 C.2     
   5 O5             0.1462    -1.7493    -0.2310 O.3     
   6 C6             0.4378    -0.4348    -0.2671 C.2     
   7 C7            -1.9376    -3.1793    -0.0853 C.3     
   8 C8            -1.6494    -3.9940    -1.3484 C.3     
   9 C9            -2.4391    -5.3041    -1.3038 C.3     
  10 C10           -1.9936    -6.1230    -0.0882 C.3     
  11 N11           -2.1316    -5.2939     1.1169 N.am    
  12 C12           -1.4864    -3.9742     1.1441 C.3     
  13 C13           -2.8367    -5.7355     2.1772 C.2     
  14 C14           -2.8593    -4.9501     3.4282 C.ar    
  15 O15           -3.4541    -6.7802     2.1042 O.2     
  16 C16            0.1974     2.5449    -0.2722 C.ar    
  17 C17            0.0260     3.9168    -0.2733 C.ar    
  18 C18           -1.2446     4.4570    -0.1971 C.ar    
  19 C19           -2.3505     3.6294    -0.1194 C.ar    
  20 C20           -2.1926     2.2584    -0.1233 C.ar    
  21 C21           -1.6904    -4.3474     3.9114 C.ar    
  22 C22           -1.7637    -3.6227     5.0858 C.ar    
  23 C23           -2.9808    -3.5161     5.7426 C.ar    
  24 N24           -4.0669    -4.0965     5.2624 N.ar    
  25 C25           -4.0464    -4.7918     4.1445 C.ar    
  26 F26           -3.0571    -2.8087     6.8910 F       
  27 F27            1.4389     2.0174    -0.3462 F       
  28 H28            1.4225     0.0036    -0.3356 H       
  29 H29           -3.0069    -2.9793    -0.0175 H       
  30 H30           -1.9469    -3.4204    -2.2262 H       
  31 H31           -0.5833    -4.2143    -1.4031 H       
  32 H32           -3.5038    -5.0846    -1.2242 H       
  33 H33           -2.2515    -5.8732    -2.2143 H       
  34 H34           -2.6206    -7.0098     0.0047 H       
  35 H35           -0.9520    -6.4204    -0.2097 H       
  36 H36           -0.4035    -4.0963     1.1230 H       
  37 H37           -1.7788    -3.4431     2.0500 H       
  38 H38            0.8859     4.5676    -0.3334 H       
  39 H39           -1.3741     5.5292    -0.1979 H       
  40 H40           -3.3404     4.0574    -0.0602 H       
  41 H41           -3.0573     1.6142    -0.0629 H       
  42 H42           -0.7556    -4.4469     3.3797 H       
  43 H43           -0.8827    -3.1447     5.4881 H       
  44 H44           -4.9546    -5.2513     3.7834 H       
@<TRIPOS>BOND
   1    1    2 1
   2    1   16 ar
   3    1   20 ar
   4    2    3 1
   5    2    6 2
   6    3    4 2
   7    4    5 1
   8    4    7 1
   9    5    6 1
  10    6   28 1
  11    7    8 1
  12    7   12 1
  13    7   29 1
  14    8    9 1
  15    8   30 1
  16    8   31 1
  17    9   10 1
  18    9   32 1
  19    9   33 1
  20   10   11 1
  21   10   34 1
  22   10   35 1
  23   11   12 1
  24   11   13 am
  25   12   36 1
  26   12   37 1
  27   13   14 1
  28   13   15 2
  29   14   21 ar
  30   14   25 ar
  31   16   17 ar
  32   16   27 1
  33   17   18 ar
  34   17   38 1
  35   18   19 ar
  36   18   39 1
  37   19   20 ar
  38   19   40 1
  39   20   41 1
  40   21   22 ar
  41   21   42 1
  42   22   23 ar
  43   22   43 1
  44   23   24 ar
  45   23   26 1
  46   24   25 ar
  47   25   44 1

#	End of record

