#	Name: ASD01410680
#	Creating user name:	WinNT
#	Creation time:	15. 06. 2019 19:18

#	Modifying user name:	WinNT
#	Modification time:	15. 06. 2019 19:18

#	Program:	/corina/corina34_cracker 3.40 0067  02.08.2006

@<TRIPOS>MOLECULE
ASD01410680
  67   70    0    0    0
SMALL
NO_CHARGES


@<TRIPOS>ATOM
   1 C1             0.1266    -1.7332    -1.5154 C.ar    
   2 C2             0.3908    -2.3497    -0.3003 C.ar    
   3 C3             1.6996    -2.4799     0.1207 C.ar    
   4 N4             2.6954    -2.0265    -0.6164 N.ar    
   5 C5             2.4837    -1.4333    -1.7799 C.ar    
   6 C6             1.1929    -1.2685    -2.2657 C.ar    
   7 O7             3.5374    -0.9819    -2.5054 O.3     
   8 C8             4.7781    -1.0796    -1.9579 C.ar    
   9 C9             5.3822    -2.3247    -1.8292 C.ar    
  10 C10            6.6412    -2.4353    -1.2749 C.ar    
  11 C11            7.3142    -1.3010    -0.8418 C.ar    
  12 C12            6.7099    -0.0408    -0.9695 C.ar    
  13 C13            5.4371     0.0608    -1.5363 C.ar    
  14 N14            8.5850    -1.4133    -0.2819 N.am    
  15 C15            9.6489    -1.6642    -1.0703 C.2     
  16 C16            8.7648    -1.2587     1.1637 C.3     
  17 O17           10.7393    -1.8676    -0.5731 O.2     
  18 C18            9.4898    -1.6921    -2.5395 C.ar    
  19 C19           10.2962    -2.5259    -3.3162 C.ar    
  20 C20           10.1426    -2.5471    -4.6870 C.ar    
  21 C21            9.1919    -1.7444    -5.2922 C.ar    
  22 C22            8.3894    -0.9157    -4.5282 C.ar    
  23 C23            8.5287    -0.8891    -3.1560 C.ar    
  24 C24            9.8439    -0.2083     1.4340 C.3     
  25 C25            9.1920    -2.5966     1.7705 C.3     
  26 C26           -0.7384    -2.8708     0.5507 C.3     
  27 O27            8.1162    -3.5315     1.6676 O.3     
  28 C28            8.4127    -4.8207     2.2082 C.3     
  29 N29           -1.0212    -4.2618     0.1884 N.pl3   
  30 C30            9.0301    -1.7724    -6.7902 C.3     
  31 N31           -1.8561    -4.6250    -0.7198 N.2     
  32 N32           -0.4643    -5.2859     0.7315 N.2     
  33 C33           -0.9456    -6.3733     0.1729 C.2     
  34 C34           -1.8641    -5.9371    -0.7848 C.2     
  35 C35            0.9566    -0.5923    -3.5915 C.3     
  36 F36           -0.4167    -0.5493    -3.8549 F       
  37 F37            1.4640     0.7107    -3.5475 F       
  38 F38            1.6031    -1.3105    -4.6031 F       
  39 C39            7.4161     1.1693    -0.5121 C.2     
  40 O40            8.5651     1.0922    -0.1245 O.2     
  41 O41            6.7875     2.3612    -0.5239 O.3     
  42 H42           -0.8877    -1.6227    -1.8696 H       
  43 H43            1.9106    -2.9588     1.0654 H       
  44 H44            4.8633    -3.2105    -2.1644 H       
  45 H45            7.1037    -3.4064    -1.1776 H       
  46 H46            4.9657     1.0271    -1.6382 H       
  47 H47            7.8253    -0.9387     1.6145 H       
  48 H48           11.0389    -3.1527    -2.8451 H       
  49 H49           10.7660    -3.1914    -5.2892 H       
  50 H50            7.6495    -0.2913    -5.0069 H       
  51 H51            7.9017    -0.2418    -2.5608 H       
  52 H52            9.4031     0.7872     1.3820 H       
  53 H53           10.2656    -0.3676     2.4264 H       
  54 H54           10.6319    -0.2962     0.6860 H       
  55 H55           10.0589    -2.9795     1.2320 H       
  56 H56            9.4501    -2.4538     2.8199 H       
  57 H57           -0.4546    -2.8196     1.6019 H       
  58 H58           -1.6285    -2.2639     0.3847 H       
  59 H59            7.5463    -5.4717     2.0915 H       
  60 H60            9.2634    -5.2497     1.6787 H       
  61 H61            8.6547    -4.7240     3.2666 H       
  62 H62            8.2981    -2.5328    -7.0624 H       
  63 H63            8.6873    -0.7976    -7.1370 H       
  64 H64            9.9877    -2.0072    -7.2548 H       
  65 H65           -0.6825    -7.3948     0.4043 H       
  66 H66           -2.4593    -6.5524    -1.4432 H       
  67 H67            7.2914     3.1264    -0.2147 H       
@<TRIPOS>BOND
   1    1    2 ar
   2    1    6 ar
   3    1   42 1
   4    2    3 ar
   5    2   26 1
   6    3    4 ar
   7    3   43 1
   8    4    5 ar
   9    5    6 ar
  10    5    7 1
  11    6   35 1
  12    7    8 1
  13    8    9 ar
  14    8   13 ar
  15    9   10 ar
  16    9   44 1
  17   10   11 ar
  18   10   45 1
  19   11   12 ar
  20   11   14 1
  21   12   13 ar
  22   12   39 1
  23   13   46 1
  24   14   15 am
  25   14   16 1
  26   15   17 2
  27   15   18 1
  28   16   24 1
  29   16   25 1
  30   16   47 1
  31   18   19 ar
  32   18   23 ar
  33   19   20 ar
  34   19   48 1
  35   20   21 ar
  36   20   49 1
  37   21   22 ar
  38   21   30 1
  39   22   23 ar
  40   22   50 1
  41   23   51 1
  42   24   52 1
  43   24   53 1
  44   24   54 1
  45   25   27 1
  46   25   55 1
  47   25   56 1
  48   26   29 1
  49   26   57 1
  50   26   58 1
  51   27   28 1
  52   28   59 1
  53   28   60 1
  54   28   61 1
  55   29   32 1
  56   29   31 1
  57   30   62 1
  58   30   63 1
  59   30   64 1
  60   31   34 2
  61   32   33 2
  62   33   34 1
  63   33   65 1
  64   34   66 1
  65   35   36 1
  66   35   37 1
  67   35   38 1
  68   39   40 2
  69   39   41 1
  70   41   67 1

#	End of record

