#	Name: ASD01811554
#	Creating user name:	WinNT
#	Creation time:	15. 06. 2019 19:26

#	Modifying user name:	WinNT
#	Modification time:	15. 06. 2019 19:26

#	Program:	/corina/corina34_cracker 3.40 0067  02.08.2006

@<TRIPOS>MOLECULE
ASD01811554
  68   72    0    0    0
SMALL
NO_CHARGES


@<TRIPOS>ATOM
   1 C1            -7.6552     2.4764    -4.1282 C.1     
   2 C2            -6.6452     3.2282    -3.4463 C.ar    
   3 C3            -5.4812     2.5976    -3.0023 C.ar    
   4 C4            -4.5123     3.3279    -2.3460 C.ar    
   5 C5            -4.6919     4.6822    -2.1270 C.ar    
   6 C6            -5.8431     5.3134    -2.5639 C.ar    
   7 C7            -6.8171     4.5966    -3.2275 C.ar    
   8 N8            -8.4566     1.8799    -4.6692 N.1     
   9 N9            -2.5321     7.8386    -0.3125 N.am    
  10 C10           -2.0131     7.3681    -1.6040 C.3     
  11 C11           -3.1173     6.5878    -2.3244 C.3     
  12 C12           -3.6292     5.4734    -1.4089 C.3     
  13 C13           -4.2215     6.0865    -0.1380 C.3     
  14 C14           -3.1298     6.8611     0.6071 C.3     
  15 C15           -2.4562     9.1414     0.0245 C.2     
  16 C16           -3.0589     9.6142     1.2892 C.ar    
  17 C17           -3.9986    10.6476     1.2735 C.ar    
  18 C18           -4.5622    11.0900     2.4534 C.ar    
  19 C19           -4.2016    10.5150     3.6563 C.ar    
  20 C20           -3.2636     9.4814     3.6862 C.ar    
  21 C21           -2.6952     9.0261     2.4987 C.ar    
  22 O22           -1.8922     9.9276    -0.7112 O.2     
  23 C23           -4.8218    11.0048     4.9395 C.3     
  24 C24           -4.3977    11.2811    -0.0344 C.3     
  25 C25           -0.9890     6.6652     7.2201 C.3     
  26 C26           -1.8733     7.6353     6.4808 C.2     
  27 C27           -2.8214     8.3956     7.0800 C.2     
  28 C28           -3.0906     8.3533     8.5650 C.3     
  29 C29           -1.8955     7.6671     9.2409 C.3     
  30 N30           -1.5854     6.4122     8.5431 N.3     
  31 C31           -2.8783     8.8672     4.9756 C.2     
  32 N32           -1.9010     7.9278     5.1535 N.pl3   
  33 N33           -3.4184     9.1329     6.1476 N.2     
  34 C34           -0.7127     5.5576     9.3593 C.3     
  35 C35           -0.8946     5.3538     6.4376 C.3     
  36 H36           -5.3400     1.5403    -3.1719 H       
  37 H37           -3.6115     2.8414    -2.0020 H       
  38 H38           -5.9771     6.3708    -2.3894 H       
  39 H39           -7.7130     5.0914    -3.5723 H       
  40 H40           -1.7141     8.2227    -2.2110 H       
  41 H41           -1.1548     6.7172    -1.4377 H       
  42 H42           -3.9377     7.2619    -2.5707 H       
  43 H43           -2.7168     6.1517    -3.2395 H       
  44 H44           -2.8031     4.8139    -1.1428 H       
  45 H45           -5.0315     6.7653    -0.4049 H       
  46 H46           -4.6069     5.2937     0.5030 H       
  47 H47           -2.3625     6.1689     0.9538 H       
  48 H48           -3.5676     7.3812     1.4592 H       
  49 H49           -5.2880    11.8895     2.4359 H       
  50 H50           -1.9724     8.2238     2.5160 H       
  51 H51           -5.6668    10.3679     5.2009 H       
  52 H52           -4.0802    10.9705     5.7377 H       
  53 H53           -5.1668    12.0304     4.8080 H       
  54 H54           -5.1885    10.6911    -0.4976 H       
  55 H55           -4.7587    12.2934     0.1475 H       
  56 H56           -3.5345    11.3172    -0.6990 H       
  57 H57            0.0059     7.0937     7.3413 H       
  58 H58           -3.1994     9.3675     8.9493 H       
  59 H59           -4.0003     7.7850     8.7590 H       
  60 H60           -1.0287     8.3269     9.2019 H       
  61 H61           -2.1409     7.4528    10.2811 H       
  62 H62           -1.3357     7.5440     4.4649 H       
  63 H63            0.2502     6.0491     9.4982 H       
  64 H64           -1.1769     5.3867    10.3306 H       
  65 H65           -0.5640     4.6030     8.8547 H       
  66 H66           -0.4724     5.5485     5.4517 H       
  67 H67           -0.2542     4.6549     6.9756 H       
  68 H68           -1.8902     4.9237     6.3279 H       
@<TRIPOS>BOND
   1    1    2 1
   2    1    8 3
   3    2    3 ar
   4    2    7 ar
   5    3    4 ar
   6    3   36 1
   7    4    5 ar
   8    4   37 1
   9    5    6 ar
  10    5   12 1
  11    6    7 ar
  12    6   38 1
  13    7   39 1
  14    9   10 1
  15    9   14 1
  16    9   15 am
  17   10   11 1
  18   10   40 1
  19   10   41 1
  20   11   12 1
  21   11   42 1
  22   11   43 1
  23   12   13 1
  24   12   44 1
  25   13   14 1
  26   13   45 1
  27   13   46 1
  28   14   47 1
  29   14   48 1
  30   15   16 1
  31   15   22 2
  32   16   17 ar
  33   16   21 ar
  34   17   18 ar
  35   17   24 1
  36   18   19 ar
  37   18   49 1
  38   19   20 ar
  39   19   23 1
  40   20   21 ar
  41   20   31 1
  42   21   50 1
  43   23   51 1
  44   23   52 1
  45   23   53 1
  46   24   54 1
  47   24   55 1
  48   24   56 1
  49   25   26 1
  50   25   30 1
  51   25   35 1
  52   25   57 1
  53   26   27 2
  54   26   32 1
  55   27   28 1
  56   27   33 1
  57   28   29 1
  58   28   58 1
  59   28   59 1
  60   29   30 1
  61   29   60 1
  62   29   61 1
  63   30   34 1
  64   31   32 1
  65   31   33 2
  66   32   62 1
  67   34   63 1
  68   34   64 1
  69   34   65 1
  70   35   66 1
  71   35   67 1
  72   35   68 1

#	End of record

