#	Name: ASD07931914
#	Creating user name:	WinNT
#	Creation time:	15. 06. 2019 21:13

#	Modifying user name:	WinNT
#	Modification time:	15. 06. 2019 21:13

#	Program:	/corina/corina34_cracker 3.40 0067  02.08.2006

@<TRIPOS>MOLECULE
ASD07931914
  49   51    0    0    0
SMALL
NO_CHARGES


@<TRIPOS>ATOM
   1 C1            -0.0677     1.4235     0.0669 C.2     
   2 N2             0.0306     0.0795     0.0464 N.am    
   3 O3             0.9438     2.1106     0.0640 O.co2   
   4 O4            -1.1684     1.9559     0.0833 O.co2   
   5 S5             1.3604    -2.2788    -0.0599 S.3     
   6 C6             1.2671    -0.5210    -0.1012 C.2     
   7 N7             2.2909     0.2219    -0.2616 N.2     
   8 C8             3.6837    -0.1196    -0.4241 C.3     
   9 C9             3.9924    -1.6169    -0.2791 C.3     
  10 C10            2.9378    -2.4963    -0.9239 C.3     
  11 O11            4.3043    -0.5373     1.8313 O.3     
  12 C12            4.4601     0.4502     0.7984 C.3     
  13 C13            4.0495    -1.8213     1.2431 C.3     
  14 C14            5.1795    -2.7902     1.5968 C.3     
  15 F15            6.3990    -2.2652     1.1559 F       
  16 F16            5.2231    -2.9694     2.9836 F       
  17 F17            4.9497    -4.0218     0.9744 F       
  18 C18            4.2253     0.4338    -1.7170 C.ar    
  19 C19            5.5522     0.2288    -2.0562 C.ar    
  20 C20            6.0483     0.7373    -3.2444 C.ar    
  21 C21            5.2189     1.4489    -4.0907 C.ar    
  22 C22            3.8947     1.6529    -3.7511 C.ar    
  23 C23            3.3968     1.1410    -2.5671 C.ar    
  24 N24            3.0077     2.4154    -4.6579 N.pl3   
  25 O25            3.4448     2.8629    -5.7030 O.2     
  26 O26            1.8407     2.5954    -4.3591 O.2     
  27 F27            6.3621    -0.4665    -1.2280 F       
  28 C28           -1.1729    -0.7451     0.1804 C.3     
  29 C29           -2.4024     0.1598     0.2815 C.3     
  30 C30           -1.3075    -1.6536    -1.0433 C.3     
  31 C31           -1.0655    -1.6026     1.4430 C.3     
  32 H32            4.9682    -1.8348    -0.7132 H       
  33 H33            3.2461    -3.5399    -0.8605 H       
  34 H34            2.8208    -2.2148    -1.9704 H       
  35 H35            5.5142     0.5773     0.5519 H       
  36 H36            4.0268     1.3994     1.1134 H       
  37 H37            3.0967    -2.2113     1.6013 H       
  38 H38            7.0830     0.5784    -3.5098 H       
  39 H39            5.6058     1.8460    -5.0175 H       
  40 H40            2.3608     1.2971    -2.3048 H       
  41 H41           -2.4789     0.7707    -0.6179 H       
  42 H42           -3.2978    -0.4537     0.3813 H       
  43 H43           -2.3065     0.8070     1.1533 H       
  44 H44           -0.4833    -2.3668    -1.0587 H       
  45 H45           -2.2535    -2.1927    -0.9932 H       
  46 H46           -1.2815    -1.0486    -1.9496 H       
  47 H47           -1.0500    -0.9566     2.3207 H       
  48 H48           -1.9227    -2.2734     1.5006 H       
  49 H49           -0.1472    -2.1888     1.4070 H       
@<TRIPOS>BOND
   1    1    2 am
   2    1    3 ar
   3    1    4 ar
   4    2    6 1
   5    2   28 1
   6    5    6 1
   7    5   10 1
   8    6    7 2
   9    7    8 1
  10    8   12 1
  11    8   18 1
  12    8    9 1
  13    9   10 1
  14    9   13 1
  15    9   32 1
  16   10   33 1
  17   10   34 1
  18   11   12 1
  19   11   13 1
  20   12   35 1
  21   12   36 1
  22   13   14 1
  23   13   37 1
  24   14   15 1
  25   14   16 1
  26   14   17 1
  27   18   19 ar
  28   18   23 ar
  29   19   20 ar
  30   19   27 1
  31   20   21 ar
  32   20   38 1
  33   21   22 ar
  34   21   39 1
  35   22   23 ar
  36   22   24 1
  37   23   40 1
  38   24   25 2
  39   24   26 2
  40   28   29 1
  41   28   31 1
  42   28   30 1
  43   29   41 1
  44   29   42 1
  45   29   43 1
  46   30   44 1
  47   30   45 1
  48   30   46 1
  49   31   47 1
  50   31   48 1
  51   31   49 1

#	End of record

