#	Name: ASD01914408
#	Creating user name:	WinNT
#	Creation time:	15. 06. 2019 20:03

#	Modifying user name:	WinNT
#	Modification time:	15. 06. 2019 20:03

#	Program:	/corina/corina34_cracker 3.40 0067  02.08.2006

@<TRIPOS>MOLECULE
ASD01914408
  64   68    0    0    0
SMALL
NO_CHARGES


@<TRIPOS>ATOM
   1 C1            -2.5841     0.5372    -2.3584 C.ar    
   2 C2            -2.1919    -0.7558    -2.0725 C.ar    
   3 C3            -0.9853    -0.9874    -1.4265 C.ar    
   4 C4            -0.1750     0.0814    -1.0689 C.ar    
   5 C5            -0.5704     1.3731    -1.3564 C.ar    
   6 C6            -1.7744     1.6023    -2.0009 C.ar    
   7 N7            -0.5855    -2.3001    -1.1349 N.pl3   
   8 C8            -1.3401    -3.2595    -0.5154 C.2     
   9 C9            -0.5671    -4.3741    -0.4370 C.2     
  10 N10            0.6262    -4.0903    -0.9975 N.2     
  11 C11            0.6207    -2.8571    -1.4203 C.2     
  12 C12           -0.9649    -5.6727     0.1599 C.ar    
  13 C13           -0.0687    -6.7398     0.1741 C.ar    
  14 C14           -0.4440    -7.9454     0.7312 C.ar    
  15 C15           -1.7071    -8.0957     1.2748 C.ar    
  16 C16           -2.6009    -7.0401     1.2630 C.ar    
  17 C17           -2.2343    -5.8282     0.7138 C.ar    
  18 C18            1.7677    -2.1604    -2.1059 C.3     
  19 O19            0.7432    -3.0098    -4.0549 O.2     
  20 C20            1.6606    -2.3632    -3.5954 C.2     
  21 N21            2.5843    -1.8260    -4.4168 N.am    
  22 F22           -2.1595     2.8665    -2.2818 F       
  23 C23           -2.1110    -9.4146     1.8816 C.3     
  24 C24            3.7120    -1.0421    -3.8914 C.3     
  25 C25            2.5086    -2.0055    -5.8765 C.3     
  26 C26            2.3602    -0.6256    -6.5202 C.3     
  27 N27            3.3174     0.3145    -5.9534 N.am    
  28 C28            3.9074     0.1716    -4.7585 C.2     
  29 O29            4.6275     1.0619    -4.3587 O.2     
  30 C30            3.6469     1.4438    -6.7110 C.ar    
  31 C31            2.8967     2.6047    -6.5896 C.ar    
  32 C32            3.2262     3.7215    -7.3419 C.ar    
  33 C33            4.3045     3.6761    -8.2141 C.ar    
  34 C34            5.0506     2.5188    -8.3336 C.ar    
  35 C35            4.7289     1.4058    -7.5815 C.ar    
  36 O36            2.4932     4.8600    -7.2257 O.3     
  37 C37            2.8896     5.9718    -8.0312 C.3     
  38 H38           -3.5207     0.7176    -2.8649 H       
  39 H39           -2.8238    -1.5862    -2.3511 H       
  40 H40            0.7640    -0.0969    -0.5659 H       
  41 H41            0.0596     2.2050    -1.0781 H       
  42 H42           -2.3534    -3.1513    -0.1578 H       
  43 H43            0.9176    -6.6236    -0.2504 H       
  44 H44            0.2496    -8.7731     0.7424 H       
  45 H45           -3.5859    -7.1631     1.6885 H       
  46 H46           -2.9328    -5.0045     0.7055 H       
  47 H47            1.7321    -1.0945    -1.8809 H       
  48 H48            2.7104    -2.5757    -1.7496 H       
  49 H49           -1.8527    -9.4217     2.9405 H       
  50 H50           -3.1864    -9.5522     1.7691 H       
  51 H51           -1.5862   -10.2240     1.3742 H       
  52 H52            3.4950    -0.7298    -2.8699 H       
  53 H53            4.6167    -1.6498    -3.9048 H       
  54 H54            3.4200    -2.4830    -6.2361 H       
  55 H55            1.6458    -2.6228    -6.1269 H       
  56 H56            2.5324    -0.7098    -7.5932 H       
  57 H57            1.3493    -0.2561    -6.3478 H       
  58 H58            2.0576     2.6382    -5.9106 H       
  59 H59            4.5609     4.5461    -8.8004 H       
  60 H60            5.8892     2.4859    -9.0134 H       
  61 H61            5.3137     0.5028    -7.6766 H       
  62 H62            3.9121     6.2551    -7.7816 H       
  63 H63            2.8359     5.6951    -9.0841 H       
  64 H64            2.2230     6.8133    -7.8422 H       
@<TRIPOS>BOND
   1    1    2 ar
   2    1    6 ar
   3    1   38 1
   4    2    3 ar
   5    2   39 1
   6    3    4 ar
   7    3    7 1
   8    4    5 ar
   9    4   40 1
  10    5    6 ar
  11    5   41 1
  12    6   22 1
  13    7    8 1
  14    7   11 1
  15    8    9 2
  16    8   42 1
  17    9   10 1
  18    9   12 1
  19   10   11 2
  20   11   18 1
  21   12   13 ar
  22   12   17 ar
  23   13   14 ar
  24   13   43 1
  25   14   15 ar
  26   14   44 1
  27   15   16 ar
  28   15   23 1
  29   16   17 ar
  30   16   45 1
  31   17   46 1
  32   18   20 1
  33   18   47 1
  34   18   48 1
  35   19   20 2
  36   20   21 am
  37   21   25 1
  38   21   24 1
  39   23   49 1
  40   23   50 1
  41   23   51 1
  42   24   28 1
  43   24   52 1
  44   24   53 1
  45   25   26 1
  46   25   54 1
  47   25   55 1
  48   26   27 1
  49   26   56 1
  50   26   57 1
  51   27   28 am
  52   27   30 1
  53   28   29 2
  54   30   31 ar
  55   30   35 ar
  56   31   32 ar
  57   31   58 1
  58   32   33 ar
  59   32   36 1
  60   33   34 ar
  61   33   59 1
  62   34   35 ar
  63   34   60 1
  64   35   61 1
  65   36   37 1
  66   37   62 1
  67   37   63 1
  68   37   64 1

#	End of record

