#	Name: ASD00960196
#	Creating user name:	WinNT
#	Creation time:	15. 06. 2019 18:53

#	Modifying user name:	WinNT
#	Modification time:	15. 06. 2019 18:53

#	Program:	/corina/corina34_cracker 3.40 0067  02.08.2006

@<TRIPOS>MOLECULE
ASD00960196
  32   34    0    0    0
SMALL
NO_CHARGES


@<TRIPOS>ATOM
   1 C1            -0.0168     1.3905     0.0097 C.2     
   2 C2             0.0021    -0.0041     0.0020 C.2     
   3 N3             1.2779     1.8344    -0.0003 N.pl3   
   4 C4             2.1111     0.7450    -0.0141 C.2     
   5 C5             1.3288    -0.4030    -0.0128 C.2     
   6 N6             1.8494     3.1143     0.0011 N.2     
   7 C7             3.1490     3.2507    -0.0105 C.2     
   8 N8             3.9694     2.2043    -0.0244 N.2     
   9 C9             3.5101     0.9652    -0.0253 C.2     
  10 N10            4.3847    -0.1033    -0.0398 N.pl3   
  11 F11           -1.0765    -0.8176     0.0083 F       
  12 C12           -1.1747     2.2057     0.0199 C.2     
  13 O13           -2.2790     1.6943     0.0230 O.2     
  14 O14           -1.0536     3.5499     0.0261 O.3     
  15 C15           -2.2634     4.3103     0.0362 C.3     
  16 C16           -1.9327     5.7806     0.0420 C.ar    
  17 C17           -1.7872     6.4610    -1.1525 C.ar    
  18 C18           -1.4837     7.8096    -1.1472 C.ar    
  19 C19           -1.3262     8.4779     0.0525 C.ar    
  20 C20           -1.4726     7.7977     1.2470 C.ar    
  21 C21           -1.7803     6.4500     1.2418 C.ar    
  22 H22            1.6892    -1.4210    -0.0217 H       
  23 H23            3.5703     4.2451    -0.0092 H       
  24 H24            5.3419     0.0535    -0.0494 H       
  25 H25            4.0419    -1.0107    -0.0404 H       
  26 H26           -2.8491     4.0731    -0.8519 H       
  27 H27           -2.8398     4.0641     0.9280 H       
  28 H28           -1.9103     5.9388    -2.0899 H       
  29 H29           -1.3694     8.3410    -2.0805 H       
  30 H30           -1.0884     9.5314     0.0566 H       
  31 H31           -1.3491     8.3198     2.1843 H       
  32 H32           -1.8983     5.9195     2.1750 H       
@<TRIPOS>BOND
   1    1    2 2
   2    1    3 1
   3    1   12 1
   4    2   11 1
   5    2    5 1
   6    3    4 1
   7    3    6 1
   8    4    5 2
   9    4    9 1
  10    5   22 1
  11    6    7 2
  12    7    8 1
  13    7   23 1
  14    8    9 2
  15    9   10 1
  16   10   24 1
  17   10   25 1
  18   12   13 2
  19   12   14 1
  20   14   15 1
  21   15   16 1
  22   15   26 1
  23   15   27 1
  24   16   17 ar
  25   16   21 ar
  26   17   18 ar
  27   17   28 1
  28   18   19 ar
  29   18   29 1
  30   19   20 ar
  31   19   30 1
  32   20   21 ar
  33   20   31 1
  34   21   32 1

#	End of record

