#	Name: ASD03080105
#	Creating user name:	WinNT
#	Creation time:	15. 06. 2019 20:26

#	Modifying user name:	WinNT
#	Modification time:	15. 06. 2019 20:26

#	Program:	/corina/corina34_cracker 3.40 0067  02.08.2006

@<TRIPOS>MOLECULE
ASD03080105
  28   30    0    0    0
SMALL
NO_CHARGES


@<TRIPOS>ATOM
   1 N1             0.0175    -1.1399    -0.0042 N.1     
   2 C2             0.0021    -0.0041     0.0020 C.1     
   3 C3            -0.0173     1.4278     0.0099 C.ar    
   4 C4             1.1809     2.1448     0.0023 C.ar    
   5 C5             1.1589     3.5248     0.0094 C.ar    
   6 C6            -0.0462     4.2014     0.0241 C.ar    
   7 C7            -1.2443     3.4970     0.0318 C.ar    
   8 C8            -1.2338     2.1115     0.0193 C.ar    
   9 N9            -2.4635     4.1884     0.0466 N.pl3   
  10 C10           -2.6354     5.5229    -0.0392 C.2     
  11 N11           -3.9169     5.7745     0.0102 N.2     
  12 C12           -4.6003     4.6278     0.1276 C.2     
  13 N13           -3.7468     3.6271     0.1477 N.2     
  14 C14           -6.0766     4.5066     0.2142 C.ar    
  15 C15           -6.8860     5.6450     0.1757 C.ar    
  16 C16           -8.2579     5.4785     0.2601 C.ar    
  17 C17           -8.7784     4.2030     0.3786 C.ar    
  18 N18           -7.9888     3.1467     0.4127 N.ar    
  19 C19           -6.6787     3.2552     0.3294 C.ar    
  20 H20            2.1245     1.6197    -0.0088 H       
  21 H21            2.0866     4.0778     0.0039 H       
  22 H22           -0.0569     5.2813     0.0300 H       
  23 H23           -2.1639     1.5626     0.0253 H       
  24 H24           -1.8493     6.2576    -0.1324 H       
  25 H25           -6.4524     6.6298     0.0829 H       
  26 H26           -8.9144     6.3357     0.2340 H       
  27 H27           -9.8480     4.0694     0.4446 H       
  28 H28           -6.0651     2.3670     0.3610 H       
@<TRIPOS>BOND
   1    1    2 3
   2    2    3 1
   3    3    4 ar
   4    3    8 ar
   5    4    5 ar
   6    4   20 1
   7    5    6 ar
   8    5   21 1
   9    6    7 ar
  10    6   22 1
  11    7    8 ar
  12    7    9 1
  13    8   23 1
  14    9   10 1
  15    9   13 1
  16   10   11 2
  17   10   24 1
  18   11   12 1
  19   12   13 2
  20   12   14 1
  21   14   15 ar
  22   14   19 ar
  23   15   16 ar
  24   15   25 1
  25   16   17 ar
  26   16   26 1
  27   17   18 ar
  28   17   27 1
  29   18   19 ar
  30   19   28 1

#	End of record

