#	Name: ASD02038657
#	Creating user name:	WinNT
#	Creation time:	15. 06. 2019 20:17

#	Modifying user name:	WinNT
#	Modification time:	15. 06. 2019 20:17

#	Program:	/corina/corina34_cracker 3.40 0067  02.08.2006

@<TRIPOS>MOLECULE
ASD02038657
  55   58    0    0    0
SMALL
NO_CHARGES


@<TRIPOS>ATOM
   1 C1            -0.0166     1.3760     0.0096 C.ar    
   2 C2             0.0021    -0.0041     0.0020 C.ar    
   3 O3            -1.1680    -0.6965     0.0090 O.3     
   4 C4            -1.0778    -2.1227     0.0005 C.3     
   5 C5            -2.4852    -2.7227     0.0102 C.3     
   6 C6            -2.3898    -4.2452     0.1269 C.3     
   7 N7            -3.7411    -4.8213     0.1361 N.3     
   8 C8            -3.6907    -6.2834     0.0083 C.3     
   9 C9            -5.1123    -6.8344    -0.1246 C.3     
  10 C10            1.1905     2.0828     0.0019 C.ar    
  11 C11            2.4126     1.3849    -0.0135 C.ar    
  12 C12            2.4088    -0.0062    -0.0209 C.ar    
  13 C13            1.2139    -0.6909    -0.0132 C.ar    
  14 O14           -3.1579    -2.3792    -1.2029 O.3     
  15 C15           -4.4765    -4.4187     1.3417 C.3     
  16 C16           -5.9253    -6.4391     1.1112 C.3     
  17 C17           -5.9215    -4.9140     1.2486 C.3     
  18 C18           -7.3428    -6.9275     0.9589 C.ar    
  19 C19           -8.0817    -7.2646     2.0775 C.ar    
  20 O20           -5.3396    -7.0249     2.2756 O.3     
  21 C21           -9.3819    -7.7127     1.9377 C.ar    
  22 C22           -7.9060    -7.0330    -0.2991 C.ar    
  23 C23           -9.2063    -7.4810    -0.4389 C.ar    
  24 C24           -9.9434    -7.8232     0.6794 C.ar    
  25 N25            3.5993     2.0894    -0.0216 N.am    
  26 C26            3.6057     3.4338    -0.0149 C.2     
  27 C27            2.4080     4.1800     0.0006 C.2     
  28 C28            1.2090     3.5468     0.0091 C.2     
  29 O29            4.6727     4.0230    -0.0219 O.2     
  30 H30           -0.9572     1.9068     0.0169 H       
  31 H31           -0.5503    -2.4481    -0.8961 H       
  32 H32           -0.5340    -2.4576     0.8838 H       
  33 H33           -3.0429    -2.3275     0.8593 H       
  34 H34           -1.8321    -4.6404    -0.7222 H       
  35 H35           -1.8767    -4.5073     1.0522 H       
  36 H36           -3.1133    -6.5509    -0.8766 H       
  37 H37           -3.2174    -6.7092     0.8931 H       
  38 H38           -5.5814    -6.4196    -1.0168 H       
  39 H39           -5.0755    -7.9209    -0.2038 H       
  40 H40            3.3424    -0.5489    -0.0331 H       
  41 H41            1.2165    -1.7709    -0.0190 H       
  42 H42           -2.7166    -2.6994    -2.0016 H       
  43 H43           -3.9995    -4.8533     2.2202 H       
  44 H44           -4.4698    -3.3319     1.4252 H       
  45 H45           -6.4629    -4.6286     2.1505 H       
  46 H46           -6.4033    -4.4691     0.3780 H       
  47 H47           -7.6430    -7.1782     3.0606 H       
  48 H48           -5.8044    -6.8157     3.0973 H       
  49 H49           -9.9589    -7.9767     2.8116 H       
  50 H50           -7.3303    -6.7651    -1.1727 H       
  51 H51           -9.6464    -7.5631    -1.4217 H       
  52 H52          -10.9593    -8.1732     0.5702 H       
  53 H53            4.4411     1.6076    -0.0319 H       
  54 H54            2.4465     5.2593     0.0060 H       
  55 H55            0.2876     4.1101     0.0209 H       
@<TRIPOS>BOND
   1    1    2 ar
   2    1   10 ar
   3    1   30 1
   4    2    3 1
   5    2   13 ar
   6    3    4 1
   7    4    5 1
   8    4   31 1
   9    4   32 1
  10    5    6 1
  11    5   14 1
  12    5   33 1
  13    6    7 1
  14    6   34 1
  15    6   35 1
  16    7    8 1
  17    7   15 1
  18    8    9 1
  19    8   36 1
  20    8   37 1
  21    9   16 1
  22    9   38 1
  23    9   39 1
  24   10   11 ar
  25   10   28 1
  26   11   12 ar
  27   11   25 1
  28   12   13 ar
  29   12   40 1
  30   13   41 1
  31   14   42 1
  32   15   17 1
  33   15   43 1
  34   15   44 1
  35   16   17 1
  36   16   18 1
  37   16   20 1
  38   17   45 1
  39   17   46 1
  40   18   19 ar
  41   18   22 ar
  42   19   21 ar
  43   19   47 1
  44   20   48 1
  45   21   24 ar
  46   21   49 1
  47   22   23 ar
  48   22   50 1
  49   23   24 ar
  50   23   51 1
  51   24   52 1
  52   25   26 am
  53   25   53 1
  54   26   27 1
  55   26   29 2
  56   27   28 2
  57   27   54 1
  58   28   55 1

#	End of record

