#	Name: ASD01202036
#	Creating user name:	WinNT
#	Creation time:	15. 06. 2019 19:09

#	Modifying user name:	WinNT
#	Modification time:	15. 06. 2019 19:09

#	Program:	/corina/corina34_cracker 3.40 0067  02.08.2006

@<TRIPOS>MOLECULE
ASD01202036
  40   43    0    0    0
SMALL
NO_CHARGES


@<TRIPOS>ATOM
   1 C1            -0.0178     1.4628     0.0101 C.2     
   2 C2             0.0021    -0.0041     0.0020 C.2     
   3 C3             1.2915     1.8520    -0.0003 C.2     
   4 C4            -1.2051     2.3360     0.0207 C.2     
   5 C5             1.3114    -0.3567    -0.0124 C.2     
   6 O6             2.0621     0.7601    -0.0135 O.3     
   7 O7            -1.0709     3.5447     0.0262 O.2     
   8 N8            -2.4395     1.7950     0.0244 N.am    
   9 C9             1.8293    -1.7416    -0.0248 C.ar    
  10 C10           -3.5585     2.6180     0.0345 C.2     
  11 S11           -3.5168     4.3248     0.0355 S.3     
  12 N12           -4.7796     2.2039     0.0387 N.2     
  13 C13           -5.2817     4.3797     0.0489 C.2     
  14 C14           -5.7473     3.1266     0.0480 C.2     
  15 H15           -2.5465     0.8309     0.0201 H       
  16 C16            3.2028    -1.9730    -0.0391 C.ar    
  17 C17            3.6827    -3.2818    -0.0502 C.ar    
  18 C18            2.7842    -4.3516    -0.0469 C.ar    
  19 C19            1.4239    -4.1145    -0.0331 C.ar    
  20 C20            0.9424    -2.8206    -0.0162 C.ar    
  21 C21            1.7850     3.2759     0.0022 C.3     
  22 C22           -7.2735     3.1448     0.0618 C.3     
  23 C23           -7.6616     4.5718    -0.3751 C.3     
  24 C24           -6.4220     5.3810     0.0568 C.3     
  25 C25            5.0931    -3.5291    -0.0655 C.1     
  26 N26            6.2119    -3.7253    -0.0776 N.1     
  27 H27           -0.8507    -0.6668     0.0066 H       
  28 H28            3.8929    -1.1422    -0.0420 H       
  29 H29            3.1543    -5.3661    -0.0555 H       
  30 H30            0.7336    -4.9450    -0.0310 H       
  31 H31           -0.1227    -2.6424    -0.0055 H       
  32 H32            1.9137     3.6141     1.0304 H       
  33 H33            2.7400     3.3304    -0.5204 H       
  34 H34            1.0583     3.9132    -0.5016 H       
  35 H35           -7.6672     2.4128    -0.6433 H       
  36 H36           -7.6454     2.9422     1.0662 H       
  37 H37           -7.8027     4.6245    -1.4547 H       
  38 H38           -8.5538     4.9118     0.1506 H       
  39 H39           -6.5624     5.7837     1.0600 H       
  40 H40           -6.2282     6.1858    -0.6523 H       
@<TRIPOS>BOND
   1    1    2 1
   2    1    3 2
   3    1    4 1
   4    2    5 2
   5    2   27 1
   6    3   21 1
   7    3    6 1
   8    4    7 2
   9    4    8 am
  10    5    9 1
  11    5    6 1
  12    8   15 1
  13    8   10 1
  14    9   16 ar
  15    9   20 ar
  16   10   12 2
  17   10   11 1
  18   11   13 1
  19   12   14 1
  20   13   14 2
  21   13   24 1
  22   14   22 1
  23   16   17 ar
  24   16   28 1
  25   17   18 ar
  26   17   25 1
  27   18   19 ar
  28   18   29 1
  29   19   20 ar
  30   19   30 1
  31   20   31 1
  32   21   32 1
  33   21   33 1
  34   21   34 1
  35   22   23 1
  36   22   35 1
  37   22   36 1
  38   23   24 1
  39   23   37 1
  40   23   38 1
  41   24   39 1
  42   24   40 1
  43   25   26 3

#	End of record

