#	Name: ASD00431224
#	Creating user name:	WinNT
#	Creation time:	15. 06. 2019 18:35

#	Modifying user name:	WinNT
#	Modification time:	15. 06. 2019 18:35

#	Program:	/corina/corina34_cracker 3.40 0067  02.08.2006

@<TRIPOS>MOLECULE
ASD00431224
  33   34    0    0    0
SMALL
NO_CHARGES


@<TRIPOS>ATOM
   1 S1            -1.9293     1.4583     1.1857 S.3     
   2 C2            -1.6250    -0.2151     1.0152 C.2     
   3 N3            -1.9464    -0.8460     2.1039 N.2     
   4 C4            -2.4236    -0.1282     3.0939 C.2     
   5 C5            -2.5127     1.1968     2.8275 C.2     
   6 C6            -3.0067     2.2297     3.7425 C.2     
   7 O7            -1.1212    -0.7998    -0.0969 O.3     
   8 C8            -0.8378    -2.1286    -0.0469 C.ar    
   9 C9            -1.8626    -3.0511     0.1063 C.ar    
  10 C10           -1.5746    -4.4010     0.1572 C.ar    
  11 C11           -0.2609    -4.8343     0.0551 C.ar    
  12 C12            0.7638    -3.9120    -0.0980 C.ar    
  13 C13            0.4755    -2.5624    -0.1547 C.ar    
  14 O14            0.0225    -6.1632     0.1057 O.3     
  15 C15           -1.0609    -7.0468     0.4016 C.3     
  16 C16           -1.6791    -7.5508    -0.9040 C.3     
  17 C17           -0.5422    -8.2359     1.2126 C.3     
  18 N18           -3.0414     3.4704     3.3628 N.2     
  19 O19           -3.5186     4.4683     4.2468 O.3     
  20 H20           -2.7203    -0.5575     4.0395 H       
  21 H21           -3.3418     1.9585     4.7327 H       
  22 H22           -2.8854    -2.7138     0.1861 H       
  23 H23           -2.3723    -5.1191     0.2768 H       
  24 H24            1.7867    -4.2494    -0.1771 H       
  25 H25            1.2729    -1.8446    -0.2784 H       
  26 H26           -1.8163    -6.5145     0.9796 H       
  27 H27           -2.5055    -8.2248    -0.6783 H       
  28 H28           -2.0486    -6.7036    -1.4819 H       
  29 H29           -0.9237    -8.0830    -1.4821 H       
  30 H30           -0.1017    -7.8769     2.1428 H       
  31 H31           -1.3685    -8.9099     1.4384 H       
  32 H32            0.2133    -8.7682     0.6346 H       
  33 H33           -3.5066     5.3611     3.8755 H       
@<TRIPOS>BOND
   1    1    2 1
   2    1    5 1
   3    2    3 2
   4    2    7 1
   5    3    4 1
   6    4    5 2
   7    4   20 1
   8    5    6 1
   9    6   18 2
  10    6   21 1
  11    7    8 1
  12    8    9 ar
  13    8   13 ar
  14    9   10 ar
  15    9   22 1
  16   10   11 ar
  17   10   23 1
  18   11   12 ar
  19   11   14 1
  20   12   13 ar
  21   12   24 1
  22   13   25 1
  23   14   15 1
  24   15   16 1
  25   15   17 1
  26   15   26 1
  27   16   27 1
  28   16   28 1
  29   16   29 1
  30   17   30 1
  31   17   31 1
  32   17   32 1
  33   18   19 1
  34   19   33 1

#	End of record

