#	Name: ASD01148485
#	Creating user name:	WinNT
#	Creation time:	15. 06. 2019 19:02

#	Modifying user name:	WinNT
#	Modification time:	15. 06. 2019 19:02

#	Program:	/corina/corina34_cracker 3.40 0067  02.08.2006

@<TRIPOS>MOLECULE
ASD01148485
  59   61    0    0    0
SMALL
NO_CHARGES


@<TRIPOS>ATOM
   1 C1             0.3639     1.8415     0.0684 C.ar    
   2 C2             0.4623     0.4636    -0.0068 C.ar    
   3 C3            -0.6831    -0.3075    -0.0942 C.ar    
   4 C4            -1.9249     0.2991    -0.1065 C.ar    
   5 C5            -2.0227     1.6760    -0.0314 C.ar    
   6 C6            -0.8788     2.4467     0.0618 C.ar    
   7 C7            -3.3770     2.3368    -0.0454 C.3     
   8 O8            -4.3695     1.4927     0.5726 O.3     
   9 C9            -3.3977     3.5769     0.8799 C.3     
  10 C10           -3.9249     3.0070     2.1831 C.2     
  11 N11           -4.4451     1.8513     1.9382 N.2     
  12 C12           -3.8546     3.6614     3.5043 C.ar    
  13 C13           -4.3819     3.0223     4.6296 C.ar    
  14 C14           -3.2558     4.9172     3.6309 C.ar    
  15 C15           -3.1904     5.5275     4.8633 C.ar    
  16 C16           -3.7223     4.8909     5.9870 C.ar    
  17 C17           -4.3164     3.6327     5.8615 C.ar    
  18 C18           -3.6511     5.5458     7.3101 C.2     
  19 O19           -4.2101     5.0456     8.2667 O.2     
  20 N20           -2.9664     6.6974     7.4560 N.am    
  21 C21           -4.8906     2.9462     7.0739 C.3     
  22 C22           -3.7865     2.7098    -1.4716 C.3     
  23 F23           -3.8258     1.5563    -2.2623 F       
  24 F24           -5.0523     3.3054    -1.4526 F       
  25 F25           -2.8561     3.6087    -2.0040 F       
  26 Cl26           2.0225    -0.2976     0.0082 Cl      
  27 C27           -2.8958     7.3465     8.7675 C.3     
  28 C28           -2.0776     8.6075     8.6605 C.2     
  29 N29           -1.8762     9.3746     9.7502 N.am    
  30 O30           -1.6004     8.9321     7.5938 O.2     
  31 C31           -1.0808    10.6004     9.6463 C.3     
  32 C32           -1.0071    11.2783    11.0159 C.3     
  33 F33           -0.4075    10.4099    11.9344 F       
  34 F34           -0.2475    12.4490    10.9166 F       
  35 F35           -2.2989    11.5959    11.4491 F       
  36 C36           -0.5766    -1.8085    -0.1766 C.3     
  37 F37           -1.8585    -2.3632    -0.2568 F       
  38 F38            0.1566    -2.1623    -1.3144 F       
  39 F39            0.0708    -2.2934     0.9648 F       
  40 C40            1.6110     2.6822     0.1637 C.3     
  41 F41            1.2581     4.0344     0.2277 F       
  42 F42            2.3232     2.3310     1.3155 F       
  43 F43            2.4094     2.4614    -0.9637 F       
  44 H44           -2.8191    -0.3027    -0.1752 H       
  45 H45           -0.9557     3.5223     0.1204 H       
  46 H46           -2.3929     3.9783     1.0115 H       
  47 H47           -4.0722     4.3393     0.4900 H       
  48 H48           -4.8412     2.0497     4.5326 H       
  49 H49           -2.8439     5.4092     2.7622 H       
  50 H50           -2.7275     6.4983     4.9613 H       
  51 H51           -2.5203     7.0965     6.6928 H       
  52 H52           -5.8978     3.3191     7.2597 H       
  53 H53           -4.9277     1.8710     6.8992 H       
  54 H54           -4.2615     3.1520     7.9400 H       
  55 H55           -3.9023     7.5939     9.1051 H       
  56 H56           -2.4287     6.6699     9.4831 H       
  57 H57           -2.2578     9.1150    10.6034 H       
  58 H58           -0.0743    10.3530     9.3087 H       
  59 H59           -1.5479    11.2770     8.9306 H       
@<TRIPOS>BOND
   1    1    2 ar
   2    1   40 1
   3    1    6 ar
   4    2    3 ar
   5    2   26 1
   6    3    4 ar
   7    3   36 1
   8    4    5 ar
   9    4   44 1
  10    5    6 ar
  11    5    7 1
  12    6   45 1
  13    7    8 1
  14    7    9 1
  15    7   22 1
  16    8   11 1
  17    9   10 1
  18    9   46 1
  19    9   47 1
  20   10   11 2
  21   10   12 1
  22   12   13 ar
  23   12   14 ar
  24   13   17 ar
  25   13   48 1
  26   14   15 ar
  27   14   49 1
  28   15   16 ar
  29   15   50 1
  30   16   17 ar
  31   16   18 1
  32   17   21 1
  33   18   19 2
  34   18   20 am
  35   20   27 1
  36   20   51 1
  37   21   52 1
  38   21   53 1
  39   21   54 1
  40   22   23 1
  41   22   24 1
  42   22   25 1
  43   27   28 1
  44   27   55 1
  45   27   56 1
  46   28   30 2
  47   28   29 am
  48   29   31 1
  49   29   57 1
  50   31   32 1
  51   31   58 1
  52   31   59 1
  53   32   33 1
  54   32   34 1
  55   32   35 1
  56   36   37 1
  57   36   38 1
  58   36   39 1
  59   40   41 1
  60   40   42 1
  61   40   43 1

#	End of record

