#	Name: ASD01670028
#	Creating user name:	WinNT
#	Creation time:	15. 06. 2019 19:22

#	Modifying user name:	WinNT
#	Modification time:	15. 06. 2019 19:22

#	Program:	/corina/corina34_cracker 3.40 0067  02.08.2006

@<TRIPOS>MOLECULE
ASD01670028
  35   38    0    0    0
SMALL
NO_CHARGES


@<TRIPOS>ATOM
   1 C1            -0.0167     1.3837     0.0096 C.ar    
   2 C2             0.0021    -0.0041     0.0020 C.ar    
   3 C3             1.1509     2.0938     0.0023 C.ar    
   4 C4             3.2855     4.4951     1.9190 C.ar    
   5 C5             1.1966    -0.6906    -0.0131 C.ar    
   6 C6             3.3357     4.9648     3.2210 C.ar    
   7 C7             2.3725     1.4186    -0.0130 C.ar    
   8 C8             4.3385     3.7764     1.3969 C.ar    
   9 C9             5.4657     3.5178     2.1828 C.ar    
  10 C10            2.3970     0.0118    -0.0209 C.ar    
  11 C11            4.4445     4.7174     4.0127 C.ar    
  12 C12            5.5168     3.9925     3.4992 C.ar    
  13 C13            4.5243     0.7354    -0.0361 C.2     
  14 C14            3.7731     1.8478    -0.0233 C.2     
  15 C15            4.2753     3.2687    -0.0206 C.3     
  16 C16            6.5946     2.7487     1.6285 C.2     
  17 C17            5.8104     4.1990     5.7011 C.3     
  18 N18            3.7195    -0.3712    -0.0356 N.pl3   
  19 O19            7.5013     3.3246     1.0605 O.2     
  20 O20            6.6209     1.4071     1.7516 O.3     
  21 O21            4.7314     5.0645     5.3017 O.3     
  22 O22            6.4739     3.8858     4.4622 O.3     
  23 H23           -0.9617     1.9065     0.0170 H       
  24 H24           -0.9290    -0.5513     0.0084 H       
  25 H25            1.1285     3.1736     0.0080 H       
  26 H26            2.4143     4.6896     1.3112 H       
  27 H27            1.2008    -1.7706    -0.0186 H       
  28 H28            2.5053     5.5277     3.6210 H       
  29 H29            5.6041     0.7167    -0.0460 H       
  30 H30            3.5974     3.8947    -0.6009 H       
  31 H31            5.2706     3.3031    -0.4636 H       
  32 H32            6.4878     4.7189     6.3785 H       
  33 H33            5.4224     3.2929     6.1665 H       
  34 H34            4.0339    -1.2888    -0.0432 H       
  35 H35            7.3816     0.9463     1.3721 H       
@<TRIPOS>BOND
   1    1    2 ar
   2    1    3 ar
   3    1   23 1
   4    2    5 ar
   5    2   24 1
   6    3    7 ar
   7    3   25 1
   8    4    6 ar
   9    4    8 ar
  10    4   26 1
  11    5   10 ar
  12    5   27 1
  13    6   11 ar
  14    6   28 1
  15    7   10 ar
  16    7   14 1
  17    8    9 ar
  18    8   15 1
  19    9   12 ar
  20    9   16 1
  21   10   18 1
  22   11   12 ar
  23   11   21 1
  24   12   22 1
  25   13   14 2
  26   13   18 1
  27   13   29 1
  28   14   15 1
  29   15   30 1
  30   15   31 1
  31   16   19 2
  32   16   20 1
  33   17   21 1
  34   17   22 1
  35   17   32 1
  36   17   33 1
  37   18   34 1
  38   20   35 1

#	End of record

