#	Name: ASD01814530
#	Creating user name:	WinNT
#	Creation time:	15. 06. 2019 19:32

#	Modifying user name:	WinNT
#	Modification time:	15. 06. 2019 19:32

#	Program:	/corina/corina34_cracker 3.40 0067  02.08.2006

@<TRIPOS>MOLECULE
ASD01814530
  32   35    0    0    0
SMALL
NO_CHARGES


@<TRIPOS>ATOM
   1 C1            -0.0167     1.3838     0.0097 C.ar    
   2 C2             0.0021    -0.0041     0.0020 C.ar    
   3 C3            -1.1856    -0.7101     0.0095 C.ar    
   4 C4            -2.3929    -0.0367     0.0246 C.ar    
   5 C5            -2.4172     1.3462     0.0318 C.ar    
   6 C6            -1.2326     2.0594     0.0307 C.ar    
   7 F7            -1.2561     3.4102     0.0382 F       
   8 N8             1.1856     2.1023     0.0020 N.am    
   9 C9             1.8896     2.4231    -1.1026 C.2     
  10 N10            1.8315     2.5988     1.1375 N.2     
  11 C11            2.9290     3.2215     0.7898 C.2     
  12 C12            3.0262     3.1419    -0.6721 C.2     
  13 O13            1.5994     2.1443    -2.2564 O.2     
  14 N14            3.9128     3.8808     1.5144 N.pl3   
  15 C15            4.9708     4.4521     0.8719 C.2     
  16 C16            5.0858     4.3807    -0.5840 C.2     
  17 C17            4.1086     3.7264    -1.3306 C.2     
  18 C18            3.8093     3.9501     2.8664 C.2     
  19 C19            4.7499     4.5856     3.6066 C.2     
  20 C20            5.8485     5.1823     2.9798 C.2     
  21 C21            5.9586     5.1150     1.6084 C.2     
  22 C22            6.2033     4.9865    -1.2434 C.1     
  23 N23            7.0897     5.4671    -1.7666 N.1     
  24 H24            0.9444    -0.5317    -0.0101 H       
  25 H25           -1.1707    -1.7900     0.0032 H       
  26 H26           -3.3193    -0.5918     0.0304 H       
  27 H27           -3.3620     1.8693     0.0433 H       
  28 H28            4.1886     3.6708    -2.4062 H       
  29 H29            2.9645     3.4923     3.3593 H       
  30 H30            4.6509     4.6315     4.6811 H       
  31 H31            6.6012     5.6906     3.5641 H       
  32 H32            6.7998     5.5696     1.1062 H       
@<TRIPOS>BOND
   1    1    2 ar
   2    1    8 1
   3    1    6 ar
   4    2    3 ar
   5    2   24 1
   6    3    4 ar
   7    3   25 1
   8    4    5 ar
   9    4   26 1
  10    5    6 ar
  11    5   27 1
  12    6    7 1
  13    8    9 am
  14    8   10 1
  15    9   13 2
  16    9   12 1
  17   10   11 2
  18   11   12 1
  19   11   14 1
  20   12   17 2
  21   14   15 1
  22   14   18 1
  23   15   16 2
  24   15   21 1
  25   16   17 1
  26   16   22 1
  27   17   28 1
  28   18   19 2
  29   18   29 1
  30   19   20 1
  31   19   30 1
  32   20   21 2
  33   20   31 1
  34   21   32 1
  35   22   23 3

#	End of record

