#	Name: ASD02030136
#	Creating user name:	WinNT
#	Creation time:	15. 06. 2019 20:14

#	Modifying user name:	WinNT
#	Modification time:	15. 06. 2019 20:14

#	Program:	/corina/corina34_cracker 3.40 0067  02.08.2006

@<TRIPOS>MOLECULE
ASD02030136
  57   61    0    0    0
SMALL
NO_CHARGES


@<TRIPOS>ATOM
   1 N1            -0.0816     1.3203     0.3248 N.am    
   2 C2            -0.2839    -0.1352     0.3420 C.3     
   3 C3            -1.3289    -0.4722     1.4128 C.3     
   4 N4            -2.4945     0.4027     1.2231 N.am    
   5 C5            -2.2922     1.8582     1.2059 C.3     
   6 C6            -1.2479     2.1953     0.1407 C.3     
   7 C7             1.1506     1.8435     0.4806 C.2     
   8 C8             2.2937     0.9611     0.7973 C.2     
   9 N9             3.5146     1.3524     1.0927 N.2     
  10 N10            2.2674    -0.3836     0.8399 N.2     
  11 C11            3.4720    -0.7864     1.1548 C.2     
  12 N12            4.2412     0.3107     1.3099 N.pl3   
  13 O13            1.3221     3.0410     0.3607 O.2     
  14 C14           -3.7267    -0.1205     1.0673 C.2     
  15 C15           -3.9026    -1.5922     0.9785 C.2     
  16 O16           -4.6935     0.6119     0.9995 O.2     
  17 C17           -0.8222     3.6579     0.2838 C.3     
  18 C18           -1.8403     1.9631    -1.2507 C.3     
  19 C19            5.6009     0.3167     1.6494 C.ar    
  20 C20            6.2805     1.5206     1.7784 C.ar    
  21 C21            7.6205     1.5232     2.1131 C.ar    
  22 C22            8.2854     0.3284     2.3191 C.ar    
  23 C23            7.6114    -0.8723     2.1913 C.ar    
  24 C24            6.2698    -0.8812     1.8629 C.ar    
  25 N25           -2.9751    -2.4952     1.1616 N.2     
  26 N26           -5.0507    -2.2444     0.6998 N.2     
  27 C27           -4.7430    -3.5270     0.7255 C.2     
  28 O28           -3.4359    -3.6079     1.0192 O.3     
  29 C29           -5.6629    -4.6587     0.4821 C.ar    
  30 C30           -5.1914    -5.9708     0.5435 C.ar    
  31 C31           -6.0550    -7.0223     0.3159 C.ar    
  32 C32           -7.3859    -6.7782     0.0268 C.ar    
  33 C33           -7.8597    -5.4798    -0.0355 C.ar    
  34 C34           -7.0077    -4.4195     0.1958 C.ar    
  35 H35           -0.6396    -0.4667    -0.6335 H       
  36 H36            0.6566    -0.6325     0.5795 H       
  37 H37           -1.6332    -1.5140     1.3120 H       
  38 H38           -0.9046    -0.3066     2.4030 H       
  39 H39           -3.2327     2.3554     0.9684 H       
  40 H40           -1.9365     2.1897     2.1814 H       
  41 H41            3.7916    -1.8114     1.2725 H       
  42 H42           -0.2942     3.7919     1.2279 H       
  43 H43           -0.1637     3.9271    -0.5421 H       
  44 H44           -1.7052     4.2967     0.2674 H       
  45 H45           -2.7135     2.6014    -1.3851 H       
  46 H46           -1.0942     2.2040    -2.0080 H       
  47 H47           -2.1350     0.9184    -1.3504 H       
  48 H48            5.7618     2.4541     1.6170 H       
  49 H49            8.1496     2.4593     2.2136 H       
  50 H50            9.3334     0.3329     2.5800 H       
  51 H51            8.1334    -1.8038     2.3528 H       
  52 H52            5.7439    -1.8192     1.7636 H       
  53 H53           -4.1526    -6.1626     0.7683 H       
  54 H54           -5.6914    -8.0381     0.3630 H       
  55 H55           -8.0577    -7.6048    -0.1513 H       
  56 H56           -8.8996    -5.2960    -0.2616 H       
  57 H57           -7.3789    -3.4065     0.1472 H       
@<TRIPOS>BOND
   1    1    2 1
   2    1    7 am
   3    1    6 1
   4    2    3 1
   5    2   35 1
   6    2   36 1
   7    3    4 1
   8    3   37 1
   9    3   38 1
  10    4    5 1
  11    4   14 am
  12    5    6 1
  13    5   39 1
  14    5   40 1
  15    6   17 1
  16    6   18 1
  17    7    8 1
  18    7   13 2
  19    8    9 2
  20    8   10 1
  21    9   12 1
  22   10   11 2
  23   11   12 1
  24   11   41 1
  25   12   19 1
  26   14   15 1
  27   14   16 2
  28   15   26 1
  29   15   25 2
  30   17   42 1
  31   17   43 1
  32   17   44 1
  33   18   45 1
  34   18   46 1
  35   18   47 1
  36   19   20 ar
  37   19   24 ar
  38   20   21 ar
  39   20   48 1
  40   21   22 ar
  41   21   49 1
  42   22   23 ar
  43   22   50 1
  44   23   24 ar
  45   23   51 1
  46   24   52 1
  47   25   28 1
  48   26   27 2
  49   27   28 1
  50   27   29 1
  51   29   30 ar
  52   29   34 ar
  53   30   31 ar
  54   30   53 1
  55   31   32 ar
  56   31   54 1
  57   32   33 ar
  58   32   55 1
  59   33   34 ar
  60   33   56 1
  61   34   57 1

#	End of record

