#	Name: ASD02500246
#	Creating user name:	WinNT
#	Creation time:	15. 06. 2019 20:22

#	Modifying user name:	WinNT
#	Modification time:	15. 06. 2019 20:22

#	Program:	/corina/corina34_cracker 3.40 0067  02.08.2006

@<TRIPOS>MOLECULE
ASD02500246
  66   70    0    0    0
SMALL
NO_CHARGES


@<TRIPOS>ATOM
   1 N1            -3.4600     4.9928     0.6257 N.ar    
   2 C2            -4.6902     5.4011     0.8207 C.ar    
   3 C3            -5.4609     4.9272     1.8803 C.ar    
   4 C4            -4.9369     4.0123     2.7485 C.ar    
   5 C5            -3.6156     3.5757     2.5358 C.ar    
   6 C6            -3.0096     2.6377     3.3865 C.ar    
   7 C7            -1.7291     2.2409     3.1473 C.ar    
   8 C8            -1.0114     2.7539     2.0691 C.ar    
   9 C9            -1.5678     3.6647     1.2245 C.ar    
  10 C10           -2.8874     4.0990     1.4384 C.ar    
  11 S11           -0.6372     4.2977    -0.1312 S.o2    
  12 O12           -0.7133     5.7140    -0.0436 O.2     
  13 O13            0.5918     3.5846    -0.1420 O.2     
  14 N14           -1.4376     3.8712    -1.5168 N.am    
  15 C15           -1.6730     2.5300    -1.7990 C.ar    
  16 C16           -2.8976     2.1380    -2.3263 C.ar    
  17 C17           -3.1318     0.8038    -2.6075 C.ar    
  18 C18           -2.1280    -0.1455    -2.3572 C.ar    
  19 C19           -0.9009     0.2650    -1.8263 C.ar    
  20 C20           -0.6782     1.5847    -1.5574 C.ar    
  21 C21           -2.3665    -1.5680    -2.6522 C.2     
  22 O22           -3.3301    -2.1352    -2.1734 O.2     
  23 N23           -1.5171    -2.2419    -3.4527 N.am    
  24 C24           -1.7796    -3.6427    -3.8115 C.3     
  25 C25           -1.7892    -3.7635    -5.3404 C.3     
  26 N26           -0.5841    -3.1105    -5.8706 N.am    
  27 C27           -0.3216    -1.7097    -5.5119 C.3     
  28 C28           -0.3149    -1.5872    -3.9875 C.3     
  29 C29            1.3565    -3.0633    -7.3676 C.ar    
  30 C30            2.3166    -3.7817    -8.0766 C.ar    
  31 C31            3.3278    -3.0931    -8.7276 C.ar    
  32 C32            3.3437    -1.7093    -8.6468 C.ar    
  33 C33            2.3563    -1.0598    -7.9235 C.ar    
  34 N34            1.4078    -1.7382    -7.3151 N.ar    
  35 C35            0.2653    -3.7843    -6.6712 C.2     
  36 O36            0.1363    -4.9832    -6.8219 O.2     
  37 C37            2.2567    -5.2864    -8.1346 C.3     
  38 F38            3.3237    -5.7664    -8.9016 F       
  39 F39            2.3426    -5.8068    -6.8388 F       
  40 F40            1.0481    -5.6829    -8.7171 F       
  41 O41           -4.3253     0.4147    -3.1219 O.3     
  42 C42           -5.2979     1.4367    -3.3492 C.3     
  43 H43           -5.1177     6.1244     0.1421 H       
  44 H44           -6.4716     5.2833     2.0153 H       
  45 H45           -5.5200     3.6346     3.5754 H       
  46 H46           -3.5557     2.2334     4.2260 H       
  47 H47           -1.2637     1.5192     3.8023 H       
  48 H48            0.0031     2.4238     1.9009 H       
  49 H49           -1.7421     4.5569    -2.1316 H       
  50 H50           -3.6653     2.8736    -2.5159 H       
  51 H51           -0.1268    -0.4628    -1.6327 H       
  52 H52            0.2726     1.8972    -1.1517 H       
  53 H53           -0.9964    -4.2789    -3.3991 H       
  54 H54           -2.7481    -3.9467    -3.4144 H       
  55 H55           -1.7899    -4.8159    -5.6242 H       
  56 H56           -2.6769    -3.2736    -5.7405 H       
  57 H57            0.6469    -1.4057    -5.9090 H       
  58 H58           -1.1048    -1.0735    -5.9242 H       
  59 H59           -0.3164    -0.5340    -3.7067 H       
  60 H60            0.5750    -2.0736    -3.5880 H       
  61 H61            4.0864    -3.6225    -9.2850 H       
  62 H62            4.1183    -1.1429    -9.1424 H       
  63 H63            2.3656     0.0182    -7.8584 H       
  64 H64           -5.5325     1.9311    -2.4066 H       
  65 H65           -4.8996     2.1671    -4.0534 H       
  66 H66           -6.2035     0.9912    -3.7611 H       
@<TRIPOS>BOND
   1    1    2 ar
   2    1   10 ar
   3    2    3 ar
   4    2   43 1
   5    3    4 ar
   6    3   44 1
   7    4    5 ar
   8    4   45 1
   9    5    6 ar
  10    5   10 ar
  11    6    7 ar
  12    6   46 1
  13    7    8 ar
  14    7   47 1
  15    8    9 ar
  16    8   48 1
  17    9   10 ar
  18    9   11 1
  19   11   12 2
  20   11   13 2
  21   11   14 am
  22   14   15 1
  23   14   49 1
  24   15   16 ar
  25   15   20 ar
  26   16   17 ar
  27   16   50 1
  28   17   18 ar
  29   17   41 1
  30   18   19 ar
  31   18   21 1
  32   19   20 ar
  33   19   51 1
  34   20   52 1
  35   21   22 2
  36   21   23 am
  37   23   24 1
  38   23   28 1
  39   24   25 1
  40   24   53 1
  41   24   54 1
  42   25   26 1
  43   25   55 1
  44   25   56 1
  45   26   27 1
  46   26   35 am
  47   27   28 1
  48   27   57 1
  49   27   58 1
  50   28   59 1
  51   28   60 1
  52   29   30 ar
  53   29   34 ar
  54   29   35 1
  55   30   31 ar
  56   30   37 1
  57   31   32 ar
  58   31   61 1
  59   32   33 ar
  60   32   62 1
  61   33   34 ar
  62   33   63 1
  63   35   36 2
  64   37   38 1
  65   37   39 1
  66   37   40 1
  67   41   42 1
  68   42   64 1
  69   42   65 1
  70   42   66 1

#	End of record

