#	Name: ASD01884194
#	Creating user name:	WinNT
#	Creation time:	15. 06. 2019 19:47

#	Modifying user name:	WinNT
#	Modification time:	15. 06. 2019 19:47

#	Program:	/corina/corina34_cracker 3.40 0067  02.08.2006

@<TRIPOS>MOLECULE
ASD01884194
  36   39    0    0    0
SMALL
NO_CHARGES


@<TRIPOS>ATOM
   1 S1            -0.0219     1.7672     0.0118 S.3     
   2 C2             0.0021    -0.0041     0.0020 C.2     
   3 N3             1.2906    -0.3577    -0.0122 N.am    
   4 C4             2.2518     0.6359    -0.0160 C.ar    
   5 C5             1.7392     1.9355    -0.0042 C.ar    
   6 C6             2.5664     3.0408    -0.0061 C.ar    
   7 C7             3.9501     2.8709    -0.0202 C.ar    
   8 C8             4.4768     1.5780    -0.0322 C.ar    
   9 C9             3.6482     0.4840    -0.0309 C.ar    
  10 O10           -0.9607    -0.7487     0.0076 O.2     
  11 C11            4.8501     4.0474    -0.0230 C.ar    
  12 C12            4.6521     5.0781    -0.9381 C.ar    
  13 C13            5.4923     6.1724    -0.9386 C.ar    
  14 C14            6.5380     6.2559    -0.0304 C.ar    
  15 C15            6.7504     5.2434     0.8850 C.ar    
  16 C16            5.9062     4.1323     0.9028 C.ar    
  17 C17            1.6772    -1.7708    -0.0230 C.3     
  18 C18            1.7985    -2.2553    -1.4692 C.3     
  19 C19            2.3090    -3.6795    -1.6966 C.3     
  20 C20            0.8336    -3.3492    -1.9309 C.3     
  21 F21            3.1068    -3.9076    -2.8230 F       
  22 F22            2.6293    -4.4391    -0.5662 F       
  23 C23            6.1173     3.0821     1.8531 C.1     
  24 N24            6.2848     2.2490     2.6071 N.1     
  25 F25            7.3533     7.3331    -0.0418 F       
  26 H26            2.1428     4.0342     0.0029 H       
  27 H27            5.5475     1.4373    -0.0436 H       
  28 H28            4.0757    -0.5077    -0.0403 H       
  29 H29            3.8404     5.0207    -1.6482 H       
  30 H30            5.3353     6.9691    -1.6507 H       
  31 H31            7.5664     5.3136     1.5889 H       
  32 H32            2.6362    -1.8889     0.4814 H       
  33 H33            0.9194    -2.3587     0.4949 H       
  34 H34            2.0844    -1.4959    -2.1970 H       
  35 H35            0.1125    -3.7237    -1.2044 H       
  36 H36            0.4845    -3.3097    -2.9627 H       
@<TRIPOS>BOND
   1    1    2 1
   2    1    5 1
   3    2    3 am
   4    2   10 2
   5    3    4 1
   6    3   17 1
   7    4    5 ar
   8    4    9 ar
   9    5    6 ar
  10    6    7 ar
  11    6   26 1
  12    7    8 ar
  13    7   11 1
  14    8    9 ar
  15    8   27 1
  16    9   28 1
  17   11   12 ar
  18   11   16 ar
  19   12   13 ar
  20   12   29 1
  21   13   14 ar
  22   13   30 1
  23   14   15 ar
  24   14   25 1
  25   15   16 ar
  26   15   31 1
  27   16   23 1
  28   17   18 1
  29   17   32 1
  30   17   33 1
  31   18   19 1
  32   18   20 1
  33   18   34 1
  34   19   20 1
  35   19   21 1
  36   19   22 1
  37   20   35 1
  38   20   36 1
  39   23   24 3

#	End of record

