#	Name: ASD03730681
#	Creating user name:	WinNT
#	Creation time:	15. 06. 2019 20:44

#	Modifying user name:	WinNT
#	Modification time:	15. 06. 2019 20:44

#	Program:	/corina/corina34_cracker 3.40 0067  02.08.2006

@<TRIPOS>MOLECULE
ASD03730681
  44   49    0    0    0
SMALL
NO_CHARGES


@<TRIPOS>ATOM
   1 O1            -0.4314     1.1604     1.1824 O.3     
   2 C2            -0.3668    -0.2764     1.2487 C.3     
   3 O3             0.7316    -0.6099     0.3798 O.3     
   4 C4             1.5540     0.4802     0.3955 C.ar    
   5 C5             0.8380     1.5687     0.8880 C.ar    
   6 C6             2.8778     0.6337     0.0247 C.ar    
   7 C7             3.5028     1.8718     0.1384 C.ar    
   8 C8             2.7748     2.9540     0.6238 C.ar    
   9 C9             1.4563     2.8027     0.9995 C.ar    
  10 O10            4.7866     2.2300    -0.1507 O.3     
  11 C11            3.7024     4.1393     0.6019 C.3     
  12 C12            4.8618     3.6626    -0.2837 C.3     
  13 N13            3.1311     6.3157     1.0004 N.am    
  14 C14            3.0419     5.3679     0.0459 C.2     
  15 C15            4.1687     4.5255     1.9740 C.ar    
  16 C16            4.8411     3.8513     2.9839 C.ar    
  17 C17            5.1375     4.5077     4.1781 C.ar    
  18 C18            4.7587     5.8249     4.3467 C.ar    
  19 C19            4.0907     6.4953     3.3422 C.ar    
  20 C20            3.7881     5.8520     2.1432 C.ar    
  21 O21            2.5295     5.4848    -1.0472 O.2     
  22 C22            2.6006     7.6736     0.8565 C.3     
  23 C23            6.1360     2.0837     1.7845 C.ar    
  24 C24            5.2431     2.4355     2.7936 C.ar    
  25 C25            4.7316     1.4347     3.6248 C.ar    
  26 C26            5.1368     0.1301     3.4078 C.ar    
  27 C27            6.0292    -0.1405     2.3823 C.ar    
  28 N28            6.4949     0.8274     1.6136 N.ar    
  29 F29            6.4288    -1.4128     2.1661 F       
  30 H30           -0.1620    -0.6040     2.2679 H       
  31 H31           -1.2931    -0.7187     0.8820 H       
  32 H32            3.4301    -0.2131    -0.3552 H       
  33 H33            0.9048     3.6488     1.3819 H       
  34 H34            5.8145     4.0367     0.0912 H       
  35 H35            4.7069     3.9639    -1.3197 H       
  36 H36            5.6604     3.9882     4.9675 H       
  37 H37            4.9872     6.3343     5.2712 H       
  38 H38            3.8002     7.5254     3.4862 H       
  39 H39            2.1363     7.7804    -0.1239 H       
  40 H40            1.8574     7.8575     1.6324 H       
  41 H41            3.4133     8.3934     0.9539 H       
  42 H42            6.5346     2.8472     1.1329 H       
  43 H43            4.0375     1.6742     4.4169 H       
  44 H44            4.7624    -0.6688     4.0308 H       
@<TRIPOS>BOND
   1    1    2 1
   2    1    5 1
   3    2    3 1
   4    2   30 1
   5    2   31 1
   6    3    4 1
   7    4    5 ar
   8    4    6 ar
   9    5    9 ar
  10    6    7 ar
  11    6   32 1
  12    7    8 ar
  13    7   10 1
  14    8    9 ar
  15    8   11 1
  16    9   33 1
  17   10   12 1
  18   11   12 1
  19   11   14 1
  20   11   15 1
  21   12   34 1
  22   12   35 1
  23   13   14 am
  24   13   20 1
  25   13   22 1
  26   14   21 2
  27   15   16 ar
  28   15   20 ar
  29   16   17 ar
  30   16   24 1
  31   17   18 ar
  32   17   36 1
  33   18   19 ar
  34   18   37 1
  35   19   20 ar
  36   19   38 1
  37   22   39 1
  38   22   40 1
  39   22   41 1
  40   23   24 ar
  41   23   28 ar
  42   23   42 1
  43   24   25 ar
  44   25   26 ar
  45   25   43 1
  46   26   27 ar
  47   26   44 1
  48   27   28 ar
  49   27   29 1

#	End of record

