#	Name: ASD04500020
#	Creating user name:	WinNT
#	Creation time:	15. 06. 2019 20:49

#	Modifying user name:	WinNT
#	Modification time:	15. 06. 2019 20:49

#	Program:	/corina/corina34_cracker 3.40 0067  02.08.2006

@<TRIPOS>MOLECULE
ASD04500020
  91   97    0    0    0
SMALL
NO_CHARGES


@<TRIPOS>ATOM
   1 C1            -0.9565     2.6653    -0.8314 C.ar    
   2 C2            -1.2274     1.3279    -0.9004 C.ar    
   3 C3            -0.2807     0.3861    -0.5185 C.ar    
   4 C4             0.9569     0.7825    -0.0599 C.ar    
   5 C5             1.2545     2.1416     0.0187 C.ar    
   6 C6             0.2900     3.0989    -0.3704 C.ar    
   7 N7             0.5946     4.4095    -0.2883 N.2     
   8 C8             2.5575     2.6240     0.4993 C.2     
   9 N9             2.7516     3.9630     0.5388 N.am    
  10 C10            1.7603     4.8181     0.1422 C.2     
  11 O11            3.4285     1.8489     0.8488 O.2     
  12 C12            2.0186     6.2725     0.2025 C.ar    
  13 C13            2.6588     8.2259     1.4540 C.ar    
  14 C14            2.4173     6.8629     1.4019 C.ar    
  15 C15            1.8700     7.0576    -0.9415 C.ar    
  16 C16            2.1135     8.4195    -0.8807 C.ar    
  17 C17            2.5052     9.0035     0.3155 C.ar    
  18 C18            4.0309     4.4997     1.0095 C.3     
  19 N19            8.5375     5.9589    -0.4062 N.pl3   
  20 N20            8.6960     7.0324     0.2861 N.2     
  21 N21            9.9437     7.2173     0.5388 N.2     
  22 C22           10.6488     6.2217    -0.0101 C.2     
  23 C23            9.7549     5.4082    -0.6194 C.2     
  24 C24           12.1441     6.0417     0.0396 C.3     
  25 N25           12.7638     6.8000    -1.0500 N.am    
  26 C26           13.1116     8.1086    -0.8554 C.2     
  27 N27           13.6674     8.8450    -1.7826 N.2     
  28 C28           13.9380     8.3545    -3.0088 C.ar    
  29 C29           13.6131     7.0099    -3.3006 C.ar    
  30 C30           12.9936     6.1998    -2.2411 C.2     
  31 C31           14.5324     9.1446    -3.9967 C.ar    
  32 C32           14.7927     8.6052    -5.2362 C.ar    
  33 C33           14.4716     7.2842    -5.5190 C.ar    
  34 C34           13.8892     6.4835    -4.5605 C.ar    
  35 C35           12.8464     8.7193     0.4645 C.ar    
  36 C36           13.3091     8.1015     1.6269 C.ar    
  37 C37           13.0584     8.6770     2.8615 C.ar    
  38 C38           12.3483     9.8661     2.9434 C.ar    
  39 C39           11.8863    10.4837     1.7902 C.ar    
  40 C40           12.1376     9.9180     0.5511 C.ar    
  41 O41           12.6953     5.0348    -2.4294 O.2     
  42 C42            4.9765     4.6807    -0.1795 C.3     
  43 C43            6.3126     5.2412     0.3121 C.3     
  44 C44            7.2582     5.4223    -0.8769 C.3     
  45 S45           12.0567    12.8954     1.7657 S.o2    
  46 O46           12.5225    12.6909     0.4389 O.2     
  47 O47           12.9431    12.6113     2.8393 O.2     
  48 O48           11.0344    13.8596     1.9768 O.2     
  49 O49           11.1912    11.6483     1.8760 O.3     
  50 S50           14.9018     8.5178     4.4180 S.o2    
  51 O51           14.6235     9.9011     4.5856 O.2     
  52 O52           15.5980     8.1103     3.2482 O.2     
  53 O53           15.0152     7.7104     5.5819 O.2     
  54 O54           13.5083     8.0759     3.9943 O.3     
  55 S55            0.5705     9.7575    -2.1749 S.o2    
  56 O56            0.5087    10.5022    -0.9662 O.2     
  57 O57           -0.1355     8.5261    -2.2412 O.2     
  58 O58            0.8049    10.4626    -3.3861 O.2     
  59 O59            1.9691     9.1851    -1.9943 O.3     
  60 O60            3.0473     8.8022     2.6222 O.3     
  61 C61            2.1143     9.4849     3.3049 C.2     
  62 C62            2.4487    10.0804     4.6483 C.3     
  63 O63            1.0065     9.6219     2.8422 O.2     
  64 H64           -1.7016     3.3852    -1.1362 H       
  65 H65           -2.1921     0.9981    -1.2569 H       
  66 H66           -0.5167    -0.6659    -0.5811 H       
  67 H67            1.6895     0.0463     0.2362 H       
  68 H68            2.5371     6.2582     2.2888 H       
  69 H69            1.5659     6.6037    -1.8731 H       
  70 H70            2.6936    10.0660     0.3597 H       
  71 H71            3.8653     5.4630     1.4920 H       
  72 H72            4.4746     3.8067     1.7244 H       
  73 H73            9.9701     4.5015    -1.1653 H       
  74 H74           12.5222     6.4044     0.9955 H       
  75 H75           12.3867     4.9847    -0.0696 H       
  76 H76           14.7860    10.1736    -3.7887 H       
  77 H77           15.2521     9.2173    -5.9983 H       
  78 H78           14.6832     6.8797    -6.4978 H       
  79 H79           13.6496     5.4544    -4.7840 H       
  80 H80           13.8617     7.1757     1.5640 H       
  81 H81           12.1542    10.3120     3.9077 H       
  82 H82           11.7779    10.3995    -0.3462 H       
  83 H83            5.1421     3.7174    -0.6620 H       
  84 H84            4.5328     5.3736    -0.8944 H       
  85 H85            6.1470     6.2045     0.7946 H       
  86 H86            6.7563     4.5483     1.0270 H       
  87 H87            6.8145     6.1152    -1.5918 H       
  88 H88            7.4238     4.4590    -1.3594 H       
  89 H89            3.4856     9.8550     4.8976 H       
  90 H90            2.3105    11.1610     4.6113 H       
  91 H91            1.7919     9.6559     5.4075 H       
@<TRIPOS>BOND
   1    1    2 ar
   2    1    6 ar
   3    1   64 1
   4    2    3 ar
   5    2   65 1
   6    3    4 ar
   7    3   66 1
   8    4    5 ar
   9    4   67 1
  10    5    6 ar
  11    5    8 1
  12    6    7 1
  13    7   10 2
  14    8    9 am
  15    8   11 2
  16    9   10 1
  17    9   18 1
  18   10   12 1
  19   12   15 ar
  20   12   14 ar
  21   13   14 ar
  22   13   17 ar
  23   13   60 1
  24   14   68 1
  25   15   16 ar
  26   15   69 1
  27   16   17 ar
  28   16   59 1
  29   17   70 1
  30   18   42 1
  31   18   71 1
  32   18   72 1
  33   19   20 1
  34   19   23 1
  35   19   44 1
  36   20   21 2
  37   21   22 1
  38   22   23 2
  39   22   24 1
  40   23   73 1
  41   24   25 1
  42   24   74 1
  43   24   75 1
  44   25   26 1
  45   25   30 am
  46   26   27 2
  47   26   35 1
  48   27   28 1
  49   28   31 ar
  50   28   29 ar
  51   29   30 1
  52   29   34 ar
  53   30   41 2
  54   31   32 ar
  55   31   76 1
  56   32   33 ar
  57   32   77 1
  58   33   34 ar
  59   33   78 1
  60   34   79 1
  61   35   36 ar
  62   35   40 ar
  63   36   37 ar
  64   36   80 1
  65   37   38 ar
  66   37   54 1
  67   38   39 ar
  68   38   81 1
  69   39   40 ar
  70   39   49 1
  71   40   82 1
  72   42   43 1
  73   42   83 1
  74   42   84 1
  75   43   44 1
  76   43   85 1
  77   43   86 1
  78   44   87 1
  79   44   88 1
  80   45   46 2
  81   45   47 2
  82   45   48 2
  83   45   49 1
  84   50   51 2
  85   50   52 2
  86   50   53 2
  87   50   54 1
  88   55   56 2
  89   55   57 2
  90   55   58 2
  91   55   59 1
  92   60   61 1
  93   61   62 1
  94   61   63 2
  95   62   89 1
  96   62   90 1
  97   62   91 1

#	End of record

