#	Name: ASD06610066
#	Creating user name:	WinNT
#	Creation time:	15. 06. 2019 21:07

#	Modifying user name:	WinNT
#	Modification time:	15. 06. 2019 21:07

#	Program:	/corina/corina34_cracker 3.40 0067  02.08.2006

@<TRIPOS>MOLECULE
ASD06610066
 276  276    0    0    0
SMALL
NO_CHARGES


@<TRIPOS>ATOM
   1 C1             0.1302    -1.4876    -3.2467 C.2     
   2 O2            -0.0140    -2.6521    -3.5535 O.2     
   3 N3             2.1225    -2.2216    -2.0716 N.am    
   4 C4             1.3834    -1.0452    -2.5362 C.3     
   5 C5             2.2586    -0.2406    -3.4993 C.3     
   6 C6             3.4839     0.2902    -2.7524 C.3     
   7 C7             2.7131    -1.1416    -4.6493 C.3     
   8 C8            -2.5886     0.1892    -5.0242 C.2     
   9 O9            -2.3347     1.3111    -4.6395 O.2     
  10 N10           -0.8279    -0.5882    -3.5462 N.am    
  11 C11           -2.0098    -1.0026    -4.3062 C.3     
  12 C12           -3.0553    -1.5788    -3.3493 C.3     
  13 C13           -2.5277    -2.8796    -2.7407 C.3     
  14 C14           -3.5733    -3.4558    -1.7837 C.3     
  15 N15           -3.0681    -4.7014    -1.2010 N.pl3   
  16 C16           -3.8392    -5.4035    -0.3051 C.2     
  17 N17           -3.3897    -6.5117     0.2134 N.2     
  18 N18           -5.0844    -4.9368     0.0438 N.pl3   
  19 C19           -5.0381     1.7900    -5.8822 C.2     
  20 O20           -5.1077     1.4553    -4.7185 O.2     
  21 N21           -3.3884     0.0085    -6.0938 N.am    
  22 C22           -4.1026     1.0697    -6.8187 C.3     
  23 C23           -4.9085     0.3915    -7.9467 C.3     
  24 C24           -5.0502    -1.0691    -7.4427 C.3     
  25 C25           -3.6870    -1.2851    -6.7346 C.3     
  26 C26           -7.8314     4.1240    -6.2174 C.2     
  27 O27           -7.7984     4.1129    -7.4297 O.2     
  28 N28           -5.7973     2.8061    -6.3377 N.am    
  29 C29           -6.7066     3.5064    -5.4272 C.3     
  30 C30           -5.9409     4.6044    -4.6863 C.3     
  31 C31           -4.8651     3.9690    -3.8033 C.3     
  32 C32           -5.2807     5.5396    -5.7014 C.3     
  33 C33          -10.5840     6.4068    -5.4589 C.2     
  34 O34          -10.2300     6.5398    -4.3065 O.2     
  35 N35           -8.8742     4.6887    -5.5769 N.am    
  36 C36           -9.9126     5.3853    -6.3402 C.3     
  37 C37          -10.9505     4.3736    -6.8304 C.3     
  38 C38          -13.3892     7.3306    -4.3439 C.2     
  39 O39          -13.5402     6.1445    -4.5472 O.2     
  40 N40          -11.5779     7.1725    -5.9511 N.am    
  41 C41          -12.3047     8.0869    -5.0669 C.3     
  42 C42          -12.9318     9.2085    -5.8974 C.3     
  43 C43          -11.8420    10.0596    -6.4965 C.2     
  44 O44          -10.6790     9.7505    -6.3453 O.2     
  45 N45          -12.1596    11.1642    -7.2003 N.am    
  46 C46          -16.3408     8.1909    -2.3662 C.2     
  47 O47          -16.2495     9.3690    -2.6398 O.2     
  48 N48          -14.1914     7.9722    -3.4714 N.am    
  49 C49          -15.2457     7.2370    -2.7685 C.3     
  50 C50          -14.6604     6.5762    -1.5188 C.3     
  51 C51          -19.2245     8.1064    -0.1212 C.2     
  52 O52          -18.8940     7.0404     0.3537 O.2     
  53 N53          -17.4215     7.7350    -1.7025 N.am    
  54 C54          -18.4861     8.6623    -1.3115 C.3     
  55 C55          -19.4601     8.8416    -2.4777 C.3     
  56 C56          -18.7397     9.5210    -3.6440 C.3     
  57 C57          -19.7138     9.7003    -4.8102 C.3     
  58 N58          -19.0240    10.3508    -5.9270 N.pl3   
  59 C59          -19.7025    10.6171    -7.0927 C.2     
  60 N60          -20.9594    10.2908    -7.2043 N.2     
  61 N61          -19.0551    11.2275    -8.1408 N.pl3   
  62 C62          -22.3304     8.7791     1.6684 C.2     
  63 O63          -22.6583     9.7653     1.0433 O.2     
  64 N64          -20.2521     8.7937     0.4156 N.am    
  65 C65          -20.8990     8.3087     1.6372 C.3     
  66 C66          -20.1563     8.8541     2.8586 C.3     
  67 C67          -20.7580     8.2544     4.1311 C.3     
  68 C68          -20.5005     6.7465     4.1556 C.3     
  69 C69          -20.1098     8.9024     5.3562 C.3     
  70 C70          -25.2455     8.0975     3.7662 C.2     
  71 O71          -24.6130     7.3751     4.5072 O.2     
  72 N72          -23.2461     8.1038     2.3908 N.am    
  73 C73          -24.6154     8.6135     2.4982 C.3     
  74 C74          -25.4316     8.1402     1.2938 C.3     
  75 C75          -24.8660     8.7652     0.0170 C.3     
  76 C76          -25.6823     8.2919    -1.1874 C.3     
  77 N77          -25.1407     8.8903    -2.4100 N.pl3   
  78 C78          -25.7160     8.6085    -3.6265 C.2     
  79 N79          -25.2341     9.1410    -4.7143 N.2     
  80 N80          -26.7994     7.7650    -3.6956 N.pl3   
  81 C81          -28.6580     7.9108     5.0788 C.2     
  82 O82          -29.1439     8.6484     4.2477 O.2     
  83 N83          -26.5118     8.4388     4.0767 N.am    
  84 C84          -27.1620     7.8509     5.2505 C.3     
  85 C85          -26.7605     8.6345     6.5018 C.3     
  86 C86          -27.3569     7.9602     7.7390 C.3     
  87 C87          -26.6833     6.6036     7.9550 C.3     
  88 C88          -27.1243     8.8460     8.9646 C.3     
  89 C89          -31.5250     8.2948     6.3831 C.2     
  90 O90          -30.8258     9.0395     7.0369 O.2     
  91 N91          -29.4559     7.1447     5.8488 N.am    
  92 C92          -30.9046     7.1457     5.6308 C.3     
  93 C93          -31.4970     5.8278     6.1337 C.3     
  94 C94          -30.9610     4.6717     5.2869 C.3     
  95 C95          -31.5534     3.3537     5.7898 C.3     
  96 N96          -31.0402     2.2468     4.9789 N.pl3   
  97 C97          -31.4358     0.9576     5.2466 C.2     
  98 N98          -32.2675     0.7202     6.2217 N.2     
  99 N99          -30.9542    -0.0813     4.4856 N.pl3   
 100 C100         -33.7256     9.1951     8.4841 C.2     
 101 O101         -33.4405     8.0795     8.8503 O.2     
 102 N102         -32.8567     8.4948     6.3292 N.am    
 103 C103         -33.4598     9.6118     7.0605 C.3     
 104 C104         -34.7771    10.0080     6.3907 C.3     
 105 C105         -35.4069    11.1746     7.1544 C.3     
 106 C106         -34.5072    10.4311     4.9453 C.3     
 107 O107         -34.2791    10.0633     9.3454 O.3     
 108 C108           2.9600    -2.1195    -1.0206 C.2     
 109 O109           3.1018    -1.0537    -0.4595 O.2     
 110 C110          15.2292    -9.2321    11.2296 C.3     
 111 C111          14.4573    -8.0035    10.7444 C.3     
 112 C112          13.5851    -8.3889     9.5479 C.3     
 113 C113          12.8132    -7.1603     9.0626 C.3     
 114 C114          11.9409    -7.5457     7.8661 C.3     
 115 C115          11.1690    -6.3171     7.3809 C.3     
 116 C116          10.2968    -6.7025     6.1844 C.3     
 117 C117           9.5249    -5.4739     5.6991 C.3     
 118 C118           8.6527    -5.8593     4.5026 C.3     
 119 C119           7.8808    -4.6307     4.0174 C.3     
 120 C120           7.0086    -5.0161     2.8209 C.3     
 121 C121           6.2367    -3.7875     2.3356 C.3     
 122 C122           5.3645    -4.1729     1.1391 C.3     
 123 C123           4.5926    -2.9442     0.6539 C.3     
 124 C124           3.7203    -3.3297    -0.5426 C.3     
 125 H125           2.0091    -3.0741    -2.5203 H       
 126 H126           1.1163    -0.4231    -1.6819 H       
 127 H127           1.6855     0.5964    -3.8981 H       
 128 H128           4.1206    -0.5446    -2.4594 H       
 129 H129           4.0430     0.9625    -3.4032 H       
 130 H130           3.1612     0.8308    -1.8627 H       
 131 H131           1.8401    -1.5197    -5.1813 H       
 132 H132           3.3366    -0.5684    -5.3354 H       
 133 H133           3.2862    -1.9786    -4.2505 H       
 134 H134          -0.7349     0.3334    -3.2585 H       
 135 H135          -1.7256    -1.7625    -5.0342 H       
 136 H136          -3.2551    -0.8605    -2.5542 H       
 137 H137          -3.9762    -1.7809    -3.8963 H       
 138 H138          -2.3279    -3.5979    -3.5358 H       
 139 H139          -1.6068    -2.6775    -2.1937 H       
 140 H140          -3.7731    -2.7375    -0.9886 H       
 141 H141          -4.4942    -3.6579    -2.3307 H       
 142 H142          -2.1895    -5.0307    -1.4472 H       
 143 H143          -3.9338    -7.0071     0.8454 H       
 144 H144          -5.4189    -4.1121    -0.3420 H       
 145 H145          -5.6284    -5.4321     0.6759 H       
 146 H146          -3.3877     1.7746    -7.2430 H       
 147 H147          -5.8874     0.8585    -8.0557 H       
 148 H148          -4.3580     0.4234    -8.8868 H       
 149 H149          -5.8783    -1.1613    -6.7399 H       
 150 H150          -5.1691    -1.7604    -8.2770 H       
 151 H151          -2.9146    -1.5355    -7.4619 H       
 152 H152          -3.7705    -2.0704    -5.9833 H       
 153 H153          -5.7416     3.0738    -7.2683 H       
 154 H154          -7.1152     2.7984    -4.7061 H       
 155 H155          -6.6322     5.1731    -4.0643 H       
 156 H156          -4.1618     3.4177    -4.4274 H       
 157 H157          -4.3335     4.7498    -3.2595 H       
 158 H158          -5.3335     3.2867    -3.0939 H       
 159 H159          -6.0472     5.9923    -6.3304 H       
 160 H160          -4.7352     6.3219    -5.1735 H       
 161 H161          -4.5894     4.9709    -6.3233 H       
 162 H162          -8.9371     4.6340    -4.6105 H       
 163 H163          -9.4602     5.8855    -7.1965 H       
 164 H164         -11.7231     4.8919    -7.3983 H       
 165 H165         -10.4648     3.6348    -7.4679 H       
 166 H166         -11.4029     3.8734    -5.9741 H       
 167 H167         -11.8120     7.1181    -6.8909 H       
 168 H168         -11.6142     8.5153    -4.3404 H       
 169 H169         -13.5351     8.7759    -6.6955 H       
 170 H170         -13.5636     9.8246    -5.2576 H       
 171 H171         -13.0898    11.4114    -7.3212 H       
 172 H172         -11.4581    11.7120    -7.5859 H       
 173 H173         -14.0706     8.9209    -3.3088 H       
 174 H174         -15.6550     6.4707    -3.4268 H       
 175 H175         -14.2511     7.3425    -0.8605 H       
 176 H176         -15.4448     6.0292    -0.9958 H       
 177 H177         -13.8683     5.8863    -1.8097 H       
 178 H178         -17.4945     6.7928    -1.4838 H       
 179 H179         -18.0502     9.6267    -1.0506 H       
 180 H180         -19.8285     7.8666    -2.7966 H       
 181 H181         -20.2989     9.4604    -2.1587 H       
 182 H182         -18.3713    10.4960    -3.3252 H       
 183 H183         -17.9010     8.9022    -3.9630 H       
 184 H184         -20.0822     8.7252    -5.1291 H       
 185 H185         -20.5525    10.3190    -4.4913 H       
 186 H186         -18.0885    10.5936    -5.8440 H       
 187 H187         -21.4382    10.4786    -8.0267 H       
 188 H188         -18.1197    11.4704    -8.0578 H       
 189 H189         -19.5338    11.4154    -8.9632 H       
 190 H190         -20.5633     9.6094    -0.0070 H       
 191 H191         -20.8742     7.2191     1.6535 H       
 192 H192         -19.1022     8.5844     2.7932 H       
 193 H193         -20.2525     9.9394     2.8877 H       
 194 H194         -21.8320     8.4399     4.1475 H       
 195 H195         -20.9802     6.3101     5.0316 H       
 196 H196         -20.9106     6.2932     3.2531 H       
 197 H197         -19.4271     6.5619     4.1993 H       
 198 H198         -20.2932     9.9768     5.3388 H       
 199 H199         -20.5385     8.4753     6.2628 H       
 200 H200         -19.0358     8.7170     5.3398 H       
 201 H201         -22.9985     7.2804     2.8397 H       
 202 H202         -24.5969     9.7031     2.5190 H       
 203 H203         -25.3766     7.0539     1.2218 H       
 204 H204         -26.4711     8.4439     1.4174 H       
 205 H205         -24.9211     9.8514     0.0889 H       
 206 H206         -23.8265     8.4615    -0.1066 H       
 207 H207         -25.6273     7.2056    -1.2594 H       
 208 H208         -26.7218     8.5956    -1.0638 H       
 209 H209         -24.3763     9.4855    -2.3613 H       
 210 H210         -25.6400     8.9421    -5.5725 H       
 211 H211         -27.1580     7.3688    -2.8861 H       
 212 H212         -27.2053     7.5662    -4.5539 H       
 213 H213         -26.9927     9.0736     3.5229 H       
 214 H214         -26.8498     6.8120     5.3566 H       
 215 H215         -25.6739     8.6525     6.5861 H       
 216 H216         -27.1362     9.6550     6.4276 H       
 217 H217         -28.4273     7.8152     7.5933 H       
 218 H218         -27.1360     6.1056     8.8125 H       
 219 H219         -26.8145     5.9870     7.0658 H       
 220 H220         -25.6195     6.7516     8.1408 H       
 221 H221         -27.6043     9.8125     8.8107 H       
 222 H222         -27.5492     8.3657     9.8460 H       
 223 H223         -26.0539     8.9910     9.1103 H       
 224 H224         -29.0710     6.5927     6.5474 H       
 225 H225         -31.1117     7.2544     4.5662 H       
 226 H226         -31.2143     5.6765     7.1755 H       
 227 H227         -32.5834     5.8637     6.0535 H       
 228 H228         -31.2436     4.8230     4.2451 H       
 229 H229         -29.8746     4.6358     5.3671 H       
 230 H230         -31.2708     3.2025     6.8316 H       
 231 H231         -32.6398     3.3897     5.7096 H       
 232 H232         -30.4213     2.4234     4.2532 H       
 233 H233         -32.5466    -0.1894     6.4106 H       
 234 H234         -30.3354     0.0954     3.7599 H       
 235 H235         -31.2334    -0.9908     4.6744 H       
 236 H236         -33.4159     7.8992     5.8063 H       
 237 H237         -32.7778    10.4621     7.0521 H       
 238 H238         -35.4591     9.1578     6.3990 H       
 239 H239         -34.7249    12.0249     7.1460 H       
 240 H240         -36.3454    11.4569     6.6772 H       
 241 H241         -35.5992    10.8732     8.1841 H       
 242 H242         -34.0585     9.6000     4.4012 H       
 243 H243         -35.4457    10.7134     4.4681 H       
 244 H244         -33.8252    11.2814     4.9369 H       
 245 H245         -34.4304     9.7504    10.2477 H       
 246 H246          15.8506    -8.9575    12.0820 H       
 247 H247          14.5252   -10.0088    11.5284 H       
 248 H248          15.8617    -9.6053    10.4242 H       
 249 H249          13.8248    -7.6303    11.5498 H       
 250 H250          15.1612    -7.2267    10.4456 H       
 251 H251          14.2176    -8.7621     8.7424 H       
 252 H252          12.8811    -9.1656     9.8466 H       
 253 H253          12.1807    -6.7871     9.8681 H       
 254 H254          13.5171    -6.3835     8.7638 H       
 255 H255          12.5735    -7.9189     7.0607 H       
 256 H256          11.2370    -8.3224     8.1649 H       
 257 H257          10.5365    -5.9439     8.1863 H       
 258 H258          11.8730    -5.5403     7.0821 H       
 259 H259          10.9293    -7.0757     5.3789 H       
 260 H260           9.5929    -7.4792     6.4831 H       
 261 H261           8.8924    -5.1007     6.5046 H       
 262 H262          10.2289    -4.6971     5.4003 H       
 263 H263           9.2852    -6.2325     3.6972 H       
 264 H264           7.9488    -6.6360     4.8014 H       
 265 H265           7.2483    -4.2575     4.8228 H       
 266 H266           8.5847    -3.8539     3.7186 H       
 267 H267           7.6411    -5.3893     2.0154 H       
 268 H268           6.3046    -5.7928     3.1196 H       
 269 H269           5.6042    -3.4143     3.1411 H       
 270 H270           6.9406    -3.0107     2.0368 H       
 271 H271           5.9970    -4.5461     0.3337 H       
 272 H272           4.6605    -4.9496     1.4379 H       
 273 H273           3.9601    -2.5711     1.4593 H       
 274 H274           5.2965    -2.1675     0.3551 H       
 275 H275           3.0164    -4.1064    -0.2439 H       
 276 H276           4.3528    -3.7029    -1.3481 H       
@<TRIPOS>BOND
   1    1    2 2
   2    1    4 1
   3    1   10 am
   4    3  108 am
   5    3    4 1
   6    3  125 1
   7    4    5 1
   8    4  126 1
   9    5    6 1
  10    5    7 1
  11    5  127 1
  12    6  128 1
  13    6  129 1
  14    6  130 1
  15    7  131 1
  16    7  132 1
  17    7  133 1
  18    8    9 2
  19    8   11 1
  20    8   21 am
  21   10   11 1
  22   10  134 1
  23   11   12 1
  24   11  135 1
  25   12   13 1
  26   12  136 1
  27   12  137 1
  28   13   14 1
  29   13  138 1
  30   13  139 1
  31   14   15 1
  32   14  140 1
  33   14  141 1
  34   15   16 1
  35   15  142 1
  36   16   17 2
  37   16   18 1
  38   17  143 1
  39   18  144 1
  40   18  145 1
  41   19   20 2
  42   19   28 am
  43   19   22 1
  44   21   22 1
  45   21   25 1
  46   22   23 1
  47   22  146 1
  48   23   24 1
  49   23  147 1
  50   23  148 1
  51   24   25 1
  52   24  149 1
  53   24  150 1
  54   25  151 1
  55   25  152 1
  56   26   27 2
  57   26   29 1
  58   26   35 am
  59   28   29 1
  60   28  153 1
  61   29   30 1
  62   29  154 1
  63   30   31 1
  64   30   32 1
  65   30  155 1
  66   31  156 1
  67   31  157 1
  68   31  158 1
  69   32  159 1
  70   32  160 1
  71   32  161 1
  72   33   34 2
  73   33   36 1
  74   33   40 am
  75   35   36 1
  76   35  162 1
  77   36   37 1
  78   36  163 1
  79   37  164 1
  80   37  165 1
  81   37  166 1
  82   38   39 2
  83   38   41 1
  84   38   48 am
  85   40   41 1
  86   40  167 1
  87   41   42 1
  88   41  168 1
  89   42   43 1
  90   42  169 1
  91   42  170 1
  92   43   44 2
  93   43   45 am
  94   45  171 1
  95   45  172 1
  96   46   47 2
  97   46   49 1
  98   46   53 am
  99   48   49 1
 100   48  173 1
 101   49   50 1
 102   49  174 1
 103   50  175 1
 104   50  176 1
 105   50  177 1
 106   51   52 2
 107   51   54 1
 108   51   64 am
 109   53   54 1
 110   53  178 1
 111   54   55 1
 112   54  179 1
 113   55   56 1
 114   55  180 1
 115   55  181 1
 116   56   57 1
 117   56  182 1
 118   56  183 1
 119   57   58 1
 120   57  184 1
 121   57  185 1
 122   58   59 1
 123   58  186 1
 124   59   60 2
 125   59   61 1
 126   60  187 1
 127   61  188 1
 128   61  189 1
 129   62   63 2
 130   62   65 1
 131   62   72 am
 132   64   65 1
 133   64  190 1
 134   65   66 1
 135   65  191 1
 136   66   67 1
 137   66  192 1
 138   66  193 1
 139   67   68 1
 140   67   69 1
 141   67  194 1
 142   68  195 1
 143   68  196 1
 144   68  197 1
 145   69  198 1
 146   69  199 1
 147   69  200 1
 148   70   71 2
 149   70   73 1
 150   70   83 am
 151   72   73 1
 152   72  201 1
 153   73   74 1
 154   73  202 1
 155   74   75 1
 156   74  203 1
 157   74  204 1
 158   75   76 1
 159   75  205 1
 160   75  206 1
 161   76   77 1
 162   76  207 1
 163   76  208 1
 164   77   78 1
 165   77  209 1
 166   78   79 2
 167   78   80 1
 168   79  210 1
 169   80  211 1
 170   80  212 1
 171   81   82 2
 172   81   84 1
 173   81   91 am
 174   83   84 1
 175   83  213 1
 176   84   85 1
 177   84  214 1
 178   85   86 1
 179   85  215 1
 180   85  216 1
 181   86   87 1
 182   86   88 1
 183   86  217 1
 184   87  218 1
 185   87  219 1
 186   87  220 1
 187   88  221 1
 188   88  222 1
 189   88  223 1
 190   89   90 2
 191   89   92 1
 192   89  102 am
 193   91   92 1
 194   91  224 1
 195   92   93 1
 196   92  225 1
 197   93   94 1
 198   93  226 1
 199   93  227 1
 200   94   95 1
 201   94  228 1
 202   94  229 1
 203   95   96 1
 204   95  230 1
 205   95  231 1
 206   96   97 1
 207   96  232 1
 208   97   98 2
 209   97   99 1
 210   98  233 1
 211   99  234 1
 212   99  235 1
 213  100  101 2
 214  100  103 1
 215  100  107 1
 216  102  103 1
 217  102  236 1
 218  103  104 1
 219  103  237 1
 220  104  105 1
 221  104  106 1
 222  104  238 1
 223  105  239 1
 224  105  240 1
 225  105  241 1
 226  106  242 1
 227  106  243 1
 228  106  244 1
 229  107  245 1
 230  108  109 2
 231  108  124 1
 232  110  111 1
 233  110  246 1
 234  110  247 1
 235  110  248 1
 236  111  112 1
 237  111  249 1
 238  111  250 1
 239  112  113 1
 240  112  251 1
 241  112  252 1
 242  113  114 1
 243  113  253 1
 244  113  254 1
 245  114  115 1
 246  114  255 1
 247  114  256 1
 248  115  116 1
 249  115  257 1
 250  115  258 1
 251  116  117 1
 252  116  259 1
 253  116  260 1
 254  117  118 1
 255  117  261 1
 256  117  262 1
 257  118  119 1
 258  118  263 1
 259  118  264 1
 260  119  120 1
 261  119  265 1
 262  119  266 1
 263  120  121 1
 264  120  267 1
 265  120  268 1
 266  121  122 1
 267  121  269 1
 268  121  270 1
 269  122  123 1
 270  122  271 1
 271  122  272 1
 272  123  124 1
 273  123  273 1
 274  123  274 1
 275  124  275 1
 276  124  276 1

#	End of record

