#	Name: ASD08710085
#	Creating user name:	WinNT
#	Creation time:	15. 06. 2019 21:19

#	Modifying user name:	WinNT
#	Modification time:	15. 06. 2019 21:19

#	Program:	/corina/corina34_cracker 3.40 0067  02.08.2006

@<TRIPOS>MOLECULE
ASD08710085
  46   48    0    0    0
SMALL
NO_CHARGES


@<TRIPOS>ATOM
   1 N1            -0.1504     1.5092    -0.3535 N.am    
   2 C2            -0.0287     0.0482    -0.4559 C.3     
   3 C3             0.2409    -0.3197    -1.9203 C.3     
   4 N4             1.3388     0.5193    -2.4208 N.am    
   5 C5             1.2171     1.9803    -2.3184 C.3     
   6 C6             0.9475     2.3482    -0.8540 C.3     
   7 S7             2.6891    -0.1693    -3.0877 S.o2    
   8 O8             3.7334     0.7853    -2.9553 O.2     
   9 O9             2.7692    -1.4869    -2.5616 O.2     
  10 C10            2.3880    -0.3408    -4.8153 C.ar    
  11 C11            2.7316     0.6801    -5.6816 C.ar    
  12 C12            2.4954     0.5456    -7.0369 C.ar    
  13 C13            1.9158    -0.6102    -7.5260 C.ar    
  14 C14            1.5729    -1.6315    -6.6599 C.ar    
  15 C15            1.8132    -1.4987    -5.3051 C.ar    
  16 C16            1.6573    -0.7565    -9.0035 C.3     
  17 F17            2.7733    -1.3353    -9.6171 F       
  18 F18            0.5394    -1.5737    -9.2026 F       
  19 F19            1.4191     0.5038    -9.5623 F       
  20 C20           -1.3302    -0.6092     0.0075 C.3     
  21 C21           -1.2516     2.0698     0.1847 C.2     
  22 O22           -2.2022     1.3745     0.4859 O.2     
  23 C23           -0.1340     4.2519     0.6507 C.ar    
  24 C24           -1.3033     3.5296     0.4087 C.ar    
  25 C25           -2.5266     4.2110     0.3811 C.ar    
  26 C26           -2.5213     5.5771     0.5961 C.ar    
  27 C27           -1.3178     6.2217     0.8297 C.ar    
  28 N28           -0.1793     5.5525     0.8503 N.ar    
  29 Cl29          -1.3057     7.9365     1.1003 Cl      
  30 H30            0.7986    -0.2945     0.1656 H       
  31 H31            0.5234    -1.3703    -1.9875 H       
  32 H32           -0.6559    -0.1408    -2.5134 H       
  33 H33            2.1443     2.4487    -2.6485 H       
  34 H34            0.3898     2.3230    -2.9399 H       
  35 H35            0.6650     3.3988    -0.7868 H       
  36 H36            1.8443     2.1693    -0.2609 H       
  37 H37            3.1845     1.5831    -5.2994 H       
  38 H38            2.7632     1.3435    -7.7136 H       
  39 H39            1.1198    -2.5343    -7.0420 H       
  40 H40            1.5487    -2.2982    -4.6288 H       
  41 H41           -2.1579    -0.2453    -0.6013 H       
  42 H42           -1.2489    -1.6909    -0.0992 H       
  43 H43           -1.5111    -0.3598     1.0530 H       
  44 H44            0.8159     3.7388     0.6793 H       
  45 H45           -3.4505     3.6831     0.1962 H       
  46 H46           -3.4456     6.1354     0.5817 H       
@<TRIPOS>BOND
   1    1    2 1
   2    1    6 1
   3    1   21 am
   4    2    3 1
   5    2   20 1
   6    2   30 1
   7    3    4 1
   8    3   31 1
   9    3   32 1
  10    4    5 1
  11    4    7 am
  12    5    6 1
  13    5   33 1
  14    5   34 1
  15    6   35 1
  16    6   36 1
  17    7    8 2
  18    7    9 2
  19    7   10 1
  20   10   11 ar
  21   10   15 ar
  22   11   12 ar
  23   11   37 1
  24   12   13 ar
  25   12   38 1
  26   13   14 ar
  27   13   16 1
  28   14   15 ar
  29   14   39 1
  30   15   40 1
  31   16   17 1
  32   16   18 1
  33   16   19 1
  34   20   41 1
  35   20   42 1
  36   20   43 1
  37   21   22 2
  38   21   24 1
  39   23   24 ar
  40   23   28 ar
  41   23   44 1
  42   24   25 ar
  43   25   26 ar
  44   25   45 1
  45   26   27 ar
  46   26   46 1
  47   27   28 ar
  48   27   29 1

#	End of record

