#	Name: ASD04882247
#	Creating user name:	WinNT
#	Creation time:	15. 06. 2019 20:54

#	Modifying user name:	WinNT
#	Modification time:	15. 06. 2019 20:54

#	Program:	/corina/corina34_cracker 3.40 0067  02.08.2006

@<TRIPOS>MOLECULE
ASD04882247
  73   77    0    0    0
SMALL
NO_CHARGES


@<TRIPOS>ATOM
   1 N1            -0.1224     1.5357    -0.0937 N.pl3   
   2 C2            -0.0338     0.1384    -0.0369 C.ar    
   3 C3            -1.1936    -0.6314     0.0869 C.ar    
   4 C4            -1.1073    -2.0176     0.1433 C.ar    
   5 C5             0.1210    -2.6375     0.0780 C.ar    
   6 C6             1.2848    -1.8737    -0.0459 C.ar    
   7 C7             1.2001    -0.4798    -0.1091 C.ar    
   8 N8            -2.4378    -0.0088     0.1543 N.3     
   9 C9            -2.5790     0.7520     1.4037 C.3     
  10 C10           -3.5249    -0.9872     0.0111 C.3     
  11 C11           -4.8693    -0.2558     0.0107 C.3     
  12 N12           -5.0105     0.5050     1.2601 N.3     
  13 C13           -3.9234     1.4834     1.4033 C.3     
  14 C14            2.6003    -2.5378    -0.1159 C.2     
  15 O15            3.6123    -1.8723    -0.2237 O.2     
  16 N16            2.6803    -3.8820    -0.0605 N.am    
  17 C17           -6.2581     1.1293     1.3277 C.ar    
  18 C18           -7.1314     0.8291     2.3651 C.ar    
  19 C19           -6.6260     2.0564     0.3605 C.ar    
  20 C20           -7.8601     2.6718     0.4303 C.ar    
  21 C21           -8.7294     2.3665     1.4618 C.ar    
  22 C22           -8.3644     1.4483     2.4289 C.ar    
  23 C23           -6.7343    -0.1716     3.4197 C.3     
  24 C24            3.9867    -4.5415    -0.1300 C.3     
  25 C25            3.7978    -6.0574    -0.0462 C.3     
  26 C26            5.1620    -6.7462    -0.1188 C.3     
  27 N27            4.9812    -8.1978    -0.0385 N.am    
  28 C28            0.9058     2.3157     0.4084 C.ar    
  29 N29            0.8540     3.6309     0.2554 N.ar    
  30 C30            1.8196     4.4045     0.7230 C.ar    
  31 C31            2.8936     3.8235     1.3790 C.ar    
  32 C32            2.9161     2.4449     1.5215 C.ar    
  33 N33            1.9155     1.7295     1.0351 N.ar    
  34 C34            4.7868    -9.0735    -1.2001 C.3     
  35 C35            4.2170   -10.3920    -0.6314 C.3     
  36 C36            4.7526   -10.3672     0.8190 C.3     
  37 C37            4.9777    -8.8994     1.1080 C.2     
  38 O38            5.1259    -8.4239     2.2138 O.2     
  39 H39           -0.9022     1.9566    -0.4882 H       
  40 H40           -2.0053    -2.6099     0.2390 H       
  41 H41            0.1848    -3.7147     0.1228 H       
  42 H42            2.0977     0.1132    -0.2048 H       
  43 H43           -2.5369     0.0689     2.2521 H       
  44 H44           -1.7699     1.4782     1.4807 H       
  45 H45           -3.4053    -1.5289    -0.9272 H       
  46 H46           -3.4935    -1.6900     0.8437 H       
  47 H47           -4.9113     0.4273    -0.8377 H       
  48 H48           -5.6784    -0.9820    -0.0663 H       
  49 H49           -4.0430     2.0251     2.3416 H       
  50 H50           -3.9547     2.1863     0.5707 H       
  51 H51            1.8730    -4.4128     0.0255 H       
  52 H52           -5.9473     2.2957    -0.4448 H       
  53 H53           -8.1467     3.3925    -0.3213 H       
  54 H54           -9.6938     2.8498     1.5144 H       
  55 H55           -9.0456     1.2122     3.2330 H       
  56 H56           -6.2294     0.3431     4.2371 H       
  57 H57           -7.6252    -0.6714     3.8001 H       
  58 H58           -6.0612    -0.9103     2.9845 H       
  59 H59            4.4722    -4.2874    -1.0723 H       
  60 H60            4.6076    -4.2062     0.7007 H       
  61 H61            3.3122    -6.3115     0.8960 H       
  62 H62            3.1768    -6.3927    -0.8769 H       
  63 H63            5.6476    -6.4921    -1.0611 H       
  64 H64            5.7830    -6.4109     0.7119 H       
  65 H65            1.7720     5.4758     0.5949 H       
  66 H66            3.6957     4.4318     1.7702 H       
  67 H67            3.7385     1.9611     2.0275 H       
  68 H68            4.0775    -8.6253    -1.8959 H       
  69 H69            5.7391    -9.2576    -1.6973 H       
  70 H70            3.1272   -10.3840    -0.6449 H       
  71 H71            4.6061   -11.2522    -1.1762 H       
  72 H72            4.0158   -10.7853     1.5049 H       
  73 H73            5.6929   -10.9142     0.8879 H       
@<TRIPOS>BOND
   1    1    2 1
   2    1   28 1
   3    1   39 1
   4    2    3 ar
   5    2    7 ar
   6    3    4 ar
   7    3    8 1
   8    4    5 ar
   9    4   40 1
  10    5    6 ar
  11    5   41 1
  12    6    7 ar
  13    6   14 1
  14    7   42 1
  15    8    9 1
  16    8   10 1
  17    9   13 1
  18    9   43 1
  19    9   44 1
  20   10   11 1
  21   10   45 1
  22   10   46 1
  23   11   12 1
  24   11   47 1
  25   11   48 1
  26   12   13 1
  27   12   17 1
  28   13   49 1
  29   13   50 1
  30   14   15 2
  31   14   16 am
  32   16   24 1
  33   16   51 1
  34   17   18 ar
  35   17   19 ar
  36   18   23 1
  37   18   22 ar
  38   19   20 ar
  39   19   52 1
  40   20   21 ar
  41   20   53 1
  42   21   22 ar
  43   21   54 1
  44   22   55 1
  45   23   56 1
  46   23   57 1
  47   23   58 1
  48   24   25 1
  49   24   59 1
  50   24   60 1
  51   25   26 1
  52   25   61 1
  53   25   62 1
  54   26   27 1
  55   26   63 1
  56   26   64 1
  57   27   34 1
  58   27   37 am
  59   28   29 ar
  60   28   33 ar
  61   29   30 ar
  62   30   31 ar
  63   30   65 1
  64   31   32 ar
  65   31   66 1
  66   32   33 ar
  67   32   67 1
  68   34   35 1
  69   34   68 1
  70   34   69 1
  71   35   36 1
  72   35   70 1
  73   35   71 1
  74   36   37 1
  75   36   72 1
  76   36   73 1
  77   37   38 2

#	End of record

