#	Name: ASD01411090
#	Creating user name:	WinNT
#	Creation time:	15. 06. 2019 19:19

#	Modifying user name:	WinNT
#	Modification time:	15. 06. 2019 19:19

#	Program:	/corina/corina34_cracker 3.40 0067  02.08.2006

@<TRIPOS>MOLECULE
ASD01411090
  65   66    0    0    0
SMALL
NO_CHARGES


@<TRIPOS>ATOM
   1 C1             0.0514     2.1539     0.5985 C.2     
   2 C2             0.5247     0.8831     0.3775 C.2     
   3 C3             1.8264     0.6875     0.7387 C.2     
   4 S4             2.4967     2.1757     1.3914 S.3     
   5 C5             0.9717     3.0160     1.1477 C.2     
   6 C6             2.5398    -0.5471     0.6065 C.1     
   7 C7             3.1247    -1.5592     0.4980 C.1     
   8 C8             3.8581    -2.8283     0.3620 C.3     
   9 C9             5.2883    -2.6482     0.8747 C.3     
  10 C10            3.1557    -3.9134     1.1806 C.3     
  11 C11            3.8924    -3.2422    -1.1105 C.3     
  12 C12            0.7285     4.3717     1.4671 C.2     
  13 O13           -0.3669     4.8594     1.2575 O.2     
  14 O14            1.7113     5.1253     2.0045 O.3     
  15 N15           -1.2530     2.5394     0.2862 N.am    
  16 C16           -2.2153     2.4862     1.2283 C.2     
  17 C17           -1.9102     1.9054     2.5850 C.3     
  18 O18           -3.3267     2.9058     0.9842 O.2     
  19 C19           -1.5966    -0.2117     3.8741 C.3     
  20 C20           -1.9064     0.3780     2.4967 C.3     
  21 C21           -2.9776     2.3558     3.5843 C.3     
  22 C22           -2.6679     1.7662     4.9617 C.3     
  23 C23           -2.6640     0.2387     4.8735 C.3     
  24 C24           -2.3543    -0.3509     6.2509 C.3     
  25 C25           -1.5762     3.0020    -1.0658 C.3     
  26 C26           -2.5238     2.0278    -1.7169 C.2     
  27 N27           -2.6659     2.0193    -3.0571 N.am    
  28 O28           -3.1586     1.2513    -1.0349 O.2     
  29 C29           -2.2353     4.3807    -0.9891 C.3     
  30 C30           -3.5871     1.0722    -3.6901 C.3     
  31 C31           -1.8992     2.9573    -3.8810 C.3     
  32 H32           -0.0854     0.1002    -0.0482 H       
  33 H33            5.2639    -2.3533     1.9237 H       
  34 H34            5.8314    -3.5880     0.7740 H       
  35 H35            5.7887    -1.8752     0.2915 H       
  36 H36            2.1367    -4.0417     0.8154 H       
  37 H37            3.6987    -4.8531     1.0799 H       
  38 H38            3.1313    -3.6185     2.2297 H       
  39 H39            4.3927    -2.4692    -1.6937 H       
  40 H40            4.4354    -4.1819    -1.2112 H       
  41 H41            2.8734    -3.3705    -1.4757 H       
  42 H42            1.4509     6.0383     2.1885 H       
  43 H43           -0.9319     2.2526     2.9172 H       
  44 H44           -1.5939    -1.2999     3.8113 H       
  45 H45           -0.6183     0.1355     4.2064 H       
  46 H46           -2.8847     0.0308     2.1645 H       
  47 H47           -1.1459     0.0571     1.7848 H       
  48 H48           -2.9804     3.4440     3.6472 H       
  49 H49           -3.9560     2.0086     3.2521 H       
  50 H50           -1.6895     2.1134     5.2940 H       
  51 H51           -3.4283     2.0871     5.6737 H       
  52 H52           -3.6424    -0.1085     4.5412 H       
  53 H53           -1.3760    -0.0037     6.5831 H       
  54 H54           -3.1148    -0.0301     6.9628 H       
  55 H55           -2.3516    -1.4391     6.1880 H       
  56 H56           -0.6619     3.0687    -1.6553 H       
  57 H57           -1.5964     5.0578    -0.4222 H       
  58 H58           -2.3765     4.7724    -1.9964 H       
  59 H59           -3.2025     4.2940    -0.4941 H       
  60 H60           -4.5752     1.5253    -3.7709 H       
  61 H61           -3.2210     0.8191    -4.6851 H       
  62 H62           -3.6505     0.1677    -3.0853 H       
  63 H63           -1.2734     3.5772    -3.2389 H       
  64 H64           -1.2690     2.4005    -4.5744 H       
  65 H65           -2.5848     3.5920    -4.4425 H       
@<TRIPOS>BOND
   1    1    2 1
   2    1    5 2
   3    1   15 1
   4    2    3 2
   5    2   32 1
   6    3    4 1
   7    3    6 1
   8    4    5 1
   9    5   12 1
  10    6    7 3
  11    7    8 1
  12    8    9 1
  13    8   10 1
  14    8   11 1
  15    9   33 1
  16    9   34 1
  17    9   35 1
  18   10   36 1
  19   10   37 1
  20   10   38 1
  21   11   39 1
  22   11   40 1
  23   11   41 1
  24   12   13 2
  25   12   14 1
  26   14   42 1
  27   15   16 am
  28   15   25 1
  29   16   18 2
  30   16   17 1
  31   17   21 1
  32   17   20 1
  33   17   43 1
  34   19   20 1
  35   19   23 1
  36   19   44 1
  37   19   45 1
  38   20   46 1
  39   20   47 1
  40   21   22 1
  41   21   48 1
  42   21   49 1
  43   22   23 1
  44   22   50 1
  45   22   51 1
  46   23   24 1
  47   23   52 1
  48   24   53 1
  49   24   54 1
  50   24   55 1
  51   25   26 1
  52   25   29 1
  53   25   56 1
  54   26   27 am
  55   26   28 2
  56   27   30 1
  57   27   31 1
  58   29   57 1
  59   29   58 1
  60   29   59 1
  61   30   60 1
  62   30   61 1
  63   30   62 1
  64   31   63 1
  65   31   64 1
  66   31   65 1

#	End of record

