#	Name: ASD09740144
#	Creating user name:	WinNT
#	Creation time:	15. 06. 2019 21:22

#	Modifying user name:	WinNT
#	Modification time:	15. 06. 2019 21:22

#	Program:	/corina/corina34_cracker 3.40 0067  02.08.2006

@<TRIPOS>MOLECULE
ASD09740144
  48   50    0    0    0
SMALL
NO_CHARGES


@<TRIPOS>ATOM
   1 O1            -0.0144     1.2085     0.0087 O.3     
   2 N2             0.0021    -0.0041     0.0020 N.2     
   3 C3             1.2413     1.6828    -0.0008 C.2     
   4 N4             2.0459     0.6359    -0.0141 N.2     
   5 C5             1.2348    -0.4424    -0.0121 C.2     
   6 C6             1.6623    -1.8639    -0.0234 C.ar    
   7 C7             1.6455     3.1033     0.0026 C.ar    
   8 C8             0.7097    -2.8803    -0.0198 C.ar    
   9 C9             3.0177    -2.1863    -0.0434 C.ar    
  10 C10            3.4095    -3.5095    -0.0537 C.ar    
  11 C11            2.4594    -4.5150    -0.0448 C.ar    
  12 C12            1.1127    -4.2005    -0.0303 C.ar    
  13 C13            0.6743     4.1074     0.0173 C.ar    
  14 C14            1.0574     5.4348     0.0203 C.ar    
  15 C15            2.4105     5.7696     0.0087 C.ar    
  16 C16            3.3748     4.7723    -0.0064 C.ar    
  17 C17            2.9990     3.4455    -0.0032 C.ar    
  18 C18            0.0834    -5.3012    -0.0206 C.3     
  19 O19            0.7420    -6.5694    -0.0289 O.3     
  20 C20           -0.7581    -2.5391    -0.0040 C.3     
  21 O21            2.7857     7.0754     0.0117 O.3     
  22 C22            4.4149     8.8605     0.0047 C.3     
  23 C23            4.1886     7.3473    -0.0008 C.3     
  24 O24            0.1145     6.4147     0.0342 O.3     
  25 C25           -2.1600     7.2313     0.0599 C.3     
  26 C26           -1.2528     5.9993     0.0451 C.3     
  27 H27            3.7602    -1.4021    -0.0511 H       
  28 H28            4.4598    -3.7605    -0.0692 H       
  29 H29            2.7704    -5.5492    -0.0533 H       
  30 H30           -0.3737     3.8466     0.0259 H       
  31 H31            4.4221     5.0356    -0.0157 H       
  32 H32            3.7517     2.6711    -0.0150 H       
  33 H33           -0.5307    -5.2166     0.8760 H       
  34 H34           -0.5494    -5.2147    -0.9039 H       
  35 H35            0.1394    -7.3256    -0.0233 H       
  36 H36           -1.1217    -2.4514    -1.0278 H       
  37 H37           -1.3086    -3.3265     0.5108 H       
  38 H38           -0.9056    -1.5928     0.5163 H       
  39 H39            3.9517     9.3003    -0.8785 H       
  40 H40            3.9692     9.2912     0.9014 H       
  41 H41            5.4849     9.0679    -0.0047 H       
  42 H42            4.6518     6.9074     0.8824 H       
  43 H43            4.6342     6.9165    -0.8974 H       
  44 H44           -3.2029     6.9144     0.0682 H       
  45 H45           -1.9533     7.8241     0.9509 H       
  46 H46           -1.9702     7.8330    -0.8290 H       
  47 H47           -1.4595     5.4065    -0.8460 H       
  48 H48           -1.4426     5.3976     0.9339 H       
@<TRIPOS>BOND
   1    1    2 1
   2    1    3 1
   3    2    5 2
   4    3    4 2
   5    3    7 1
   6    4    5 1
   7    5    6 1
   8    6    8 ar
   9    6    9 ar
  10    7   13 ar
  11    7   17 ar
  12    8   20 1
  13    8   12 ar
  14    9   10 ar
  15    9   27 1
  16   10   11 ar
  17   10   28 1
  18   11   12 ar
  19   11   29 1
  20   12   18 1
  21   13   14 ar
  22   13   30 1
  23   14   15 ar
  24   14   24 1
  25   15   16 ar
  26   15   21 1
  27   16   17 ar
  28   16   31 1
  29   17   32 1
  30   18   19 1
  31   18   33 1
  32   18   34 1
  33   19   35 1
  34   20   36 1
  35   20   37 1
  36   20   38 1
  37   21   23 1
  38   22   23 1
  39   22   39 1
  40   22   40 1
  41   22   41 1
  42   23   42 1
  43   23   43 1
  44   24   26 1
  45   25   26 1
  46   25   44 1
  47   25   45 1
  48   25   46 1
  49   26   47 1
  50   26   48 1

#	End of record

