#	Name: ASD03082047
#	Creating user name:	WinNT
#	Creation time:	15. 06. 2019 20:27

#	Modifying user name:	WinNT
#	Modification time:	15. 06. 2019 20:27

#	Program:	/corina/corina34_cracker 3.40 0067  02.08.2006

@<TRIPOS>MOLECULE
ASD03082047
  72   77    0    0    0
SMALL
NO_CHARGES


@<TRIPOS>ATOM
   1 C1            -0.6260     2.1108    -0.9529 C.3     
   2 N2            -0.1075     0.8058    -0.4951 N.3     
   3 C3             0.8977     0.2836    -1.4286 C.3     
   4 C4             0.3102     0.1619    -2.8367 C.3     
   5 C5            -0.2561     1.5334    -3.2530 C.3     
   6 C6            -1.4117     1.8437    -2.2637 C.3     
   7 C7             0.8155     2.5912    -2.9019 C.3     
   8 C8             0.5815     2.9571    -1.4150 C.3     
   9 O9             0.5244     3.8017    -3.6293 O.3     
  10 O10            0.1882     4.3448    -1.4354 O.3     
  11 C11            0.7278     4.8618    -2.6704 C.3     
  12 C12            2.2200     5.1624    -2.5161 C.3     
  13 C13           -0.0297     6.1204    -3.0980 C.3     
  14 C14            0.4380     0.9039     0.8653 C.3     
  15 C15            0.7340    -0.4993     1.3985 C.3     
  16 C16            1.3022    -0.3971     2.8154 C.3     
  17 C17            1.5937    -1.7793     3.3406 C.ar    
  18 C18            2.8354    -2.3500     3.1326 C.ar    
  19 C19            3.1028    -3.6178     3.6143 C.ar    
  20 C20            2.1286    -4.3147     4.3044 C.ar    
  21 C21            0.8872    -3.7436     4.5132 C.ar    
  22 C22            0.6213    -2.4740     4.0353 C.ar    
  23 O23            1.3513    -0.2381    -3.7664 O.3     
  24 C24            1.5318    -1.5607    -3.9507 C.2     
  25 C25            2.5713    -2.0407    -4.8805 C.ar    
  26 O26            0.8382    -2.3578    -3.3510 O.2     
  27 C27            3.2788    -1.1346    -5.6713 C.ar    
  28 C28            4.2503    -1.5892    -6.5388 C.ar    
  29 C29            4.5298    -2.9424    -6.6314 C.ar    
  30 C30            3.8397    -3.8539    -5.8571 C.ar    
  31 C31            2.8601    -3.4148    -4.9717 C.ar    
  32 C32            2.1171    -4.3895    -4.1388 C.ar    
  33 C33            1.4300    -5.4435    -4.7399 C.ar    
  34 C34            0.7402    -6.3484    -3.9590 C.ar    
  35 C35            0.7292    -6.2110    -2.5825 C.ar    
  36 C36            1.4090    -5.1674    -1.9804 C.ar    
  37 C37            2.1070    -4.2597    -2.7505 C.ar    
  38 H38           -1.2214     2.6130    -0.1904 H       
  39 H39            1.7521     0.9600    -1.4526 H       
  40 H40            1.2269    -0.6989    -1.0902 H       
  41 H41           -0.4889    -0.5794    -2.8370 H       
  42 H42           -0.5708     1.5615    -4.2961 H       
  43 H43           -2.0751     0.9857    -2.1548 H       
  44 H44           -1.9667     2.7287    -2.5749 H       
  45 H45            1.8252     2.2299    -3.0970 H       
  46 H46            1.4655     2.7760    -0.8036 H       
  47 H47            2.6300     5.4704    -3.4780 H       
  48 H48            2.3560     5.9638    -1.7899 H       
  49 H49            2.7372     4.2673    -2.1706 H       
  50 H50           -1.0951     5.8992    -3.1618 H       
  51 H51            0.1341     6.9099    -2.3645 H       
  52 H52            0.3321     6.4489    -4.0723 H       
  53 H53            1.3587     1.4870     0.8463 H       
  54 H54           -0.2887     1.3932     1.5138 H       
  55 H55           -0.1867    -1.0825     1.4174 H       
  56 H56            1.4607    -0.9886     0.7500 H       
  57 H57            2.2229     0.1860     2.7964 H       
  58 H58            0.5755     0.0922     3.4639 H       
  59 H59            3.5965    -1.8056     2.5934 H       
  60 H60            4.0727    -4.0641     3.4512 H       
  61 H61            2.3373    -5.3055     4.6802 H       
  62 H62            0.1260    -4.2881     5.0521 H       
  63 H63           -0.3486    -2.0278     4.1984 H       
  64 H64            3.0657    -0.0779    -5.6045 H       
  65 H65            4.7960    -0.8855    -7.1499 H       
  66 H66            5.2925    -3.2871    -7.3140 H       
  67 H67            4.0632    -4.9076    -5.9357 H       
  68 H68            1.4373    -5.5513    -5.8145 H       
  69 H69            0.2077    -7.1651    -4.4235 H       
  70 H70            0.1874    -6.9212    -1.9755 H       
  71 H71            1.3964    -5.0651    -0.9054 H       
  72 H72            2.6373    -3.4453    -2.2794 H       
@<TRIPOS>BOND
   1    1    2 1
   2    1    8 1
   3    1    6 1
   4    1   38 1
   5    2    3 1
   6    2   14 1
   7    3    4 1
   8    3   39 1
   9    3   40 1
  10    4    5 1
  11    4   23 1
  12    4   41 1
  13    5    6 1
  14    5    7 1
  15    5   42 1
  16    6   43 1
  17    6   44 1
  18    7    9 1
  19    7    8 1
  20    7   45 1
  21    8   10 1
  22    8   46 1
  23    9   11 1
  24   10   11 1
  25   11   12 1
  26   11   13 1
  27   12   47 1
  28   12   48 1
  29   12   49 1
  30   13   50 1
  31   13   51 1
  32   13   52 1
  33   14   15 1
  34   14   53 1
  35   14   54 1
  36   15   16 1
  37   15   55 1
  38   15   56 1
  39   16   17 1
  40   16   57 1
  41   16   58 1
  42   17   18 ar
  43   17   22 ar
  44   18   19 ar
  45   18   59 1
  46   19   20 ar
  47   19   60 1
  48   20   21 ar
  49   20   61 1
  50   21   22 ar
  51   21   62 1
  52   22   63 1
  53   23   24 1
  54   24   25 1
  55   24   26 2
  56   25   27 ar
  57   25   31 ar
  58   27   28 ar
  59   27   64 1
  60   28   29 ar
  61   28   65 1
  62   29   30 ar
  63   29   66 1
  64   30   31 ar
  65   30   67 1
  66   31   32 1
  67   32   33 ar
  68   32   37 ar
  69   33   34 ar
  70   33   68 1
  71   34   35 ar
  72   34   69 1
  73   35   36 ar
  74   35   70 1
  75   36   37 ar
  76   36   71 1
  77   37   72 1

#	End of record

