#	Name: ASD01148482
#	Creating user name:	WinNT
#	Creation time:	15. 06. 2019 19:02

#	Modifying user name:	WinNT
#	Modification time:	15. 06. 2019 19:02

#	Program:	/corina/corina34_cracker 3.40 0067  02.08.2006

@<TRIPOS>MOLECULE
ASD01148482
  54   57    0    0    0
SMALL
NO_CHARGES


@<TRIPOS>ATOM
   1 C1             0.3637     1.8419     0.0681 C.ar    
   2 C2             0.4621     0.4639    -0.0072 C.ar    
   3 C3            -0.6833    -0.3071    -0.0948 C.ar    
   4 C4            -1.9251     0.2996    -0.1070 C.ar    
   5 C5            -2.0228     1.6765    -0.0317 C.ar    
   6 C6            -0.8789     2.4471     0.0616 C.ar    
   7 C7            -3.3771     2.3374    -0.0456 C.3     
   8 O8            -4.3697     1.4933     0.5723 O.3     
   9 C9            -3.3978     3.5773     0.8798 C.3     
  10 C10           -3.9249     3.0073     2.1829 C.2     
  11 N11           -4.4452     1.8516     1.9379 N.2     
  12 C12           -3.8544     3.6614     3.5043 C.ar    
  13 C13           -4.3818     3.0222     4.6295 C.ar    
  14 C14           -3.2552     4.9171     3.6310 C.ar    
  15 C15           -3.1895     5.5272     4.8634 C.ar    
  16 C16           -3.7215     4.8904     5.9872 C.ar    
  17 C17           -4.3160     3.6321     5.8614 C.ar    
  18 C18           -3.6505     5.5449     7.3099 C.2     
  19 O19           -4.2095     5.0447     8.2663 O.2     
  20 N20           -2.9658     6.6966     7.4560 N.am    
  21 C21           -4.8899     2.9453     7.0738 C.3     
  22 C22           -3.7866     2.7105    -1.4718 C.3     
  23 F23           -3.8259     1.5571    -2.2626 F       
  24 F24           -5.0523     3.3062    -1.4528 F       
  25 F25           -2.8561     3.6094    -2.0041 F       
  26 Cl26           2.0223    -0.2973     0.0077 Cl      
  27 C27           -2.8991     7.3117     8.6988 C.ar    
  28 N28           -2.2221     8.4428     8.8245 N.ar    
  29 N29           -3.5184     6.7558     9.7289 N.ar    
  30 C30           -3.4749     7.3157    10.9265 C.ar    
  31 C31           -2.7704     8.4975    11.0951 C.ar    
  32 C32           -2.1386     9.0546     9.9943 C.ar    
  33 C33           -0.5769    -1.8081    -0.1773 C.3     
  34 F34           -1.8588    -2.3627    -0.2576 F       
  35 F35            0.1563    -2.1618    -1.3151 F       
  36 F36            0.0704    -2.2932     0.9641 F       
  37 C37            1.6109     2.6824     0.1635 C.3     
  38 F38            1.2581     4.0347     0.2277 F       
  39 F39            2.3231     2.3311     1.3153 F       
  40 F40            2.4093     2.4618    -0.9639 F       
  41 H41           -2.8193    -0.3022    -0.1757 H       
  42 H42           -0.9558     3.5227     0.1203 H       
  43 H43           -2.3930     3.9787     1.0114 H       
  44 H44           -4.0722     4.3398     0.4900 H       
  45 H45           -4.8414     2.0497     4.5322 H       
  46 H46           -2.8433     5.4091     2.7623 H       
  47 H47           -2.7263     6.4979     4.9614 H       
  48 H48           -2.5197     7.0958     6.6927 H       
  49 H49           -5.8970     3.3183     7.2601 H       
  50 H50           -4.9273     1.8701     6.8987 H       
  51 H51           -4.2605     3.1507     7.9397 H       
  52 H52           -3.9824     6.8578    11.7627 H       
  53 H53           -2.7188     8.9761    12.0619 H       
  54 H54           -1.5811     9.9745    10.0915 H       
@<TRIPOS>BOND
   1    1    2 ar
   2    1   37 1
   3    1    6 ar
   4    2    3 ar
   5    2   26 1
   6    3    4 ar
   7    3   33 1
   8    4    5 ar
   9    4   41 1
  10    5    6 ar
  11    5    7 1
  12    6   42 1
  13    7    8 1
  14    7    9 1
  15    7   22 1
  16    8   11 1
  17    9   10 1
  18    9   43 1
  19    9   44 1
  20   10   11 2
  21   10   12 1
  22   12   13 ar
  23   12   14 ar
  24   13   17 ar
  25   13   45 1
  26   14   15 ar
  27   14   46 1
  28   15   16 ar
  29   15   47 1
  30   16   17 ar
  31   16   18 1
  32   17   21 1
  33   18   19 2
  34   18   20 am
  35   20   27 1
  36   20   48 1
  37   21   49 1
  38   21   50 1
  39   21   51 1
  40   22   23 1
  41   22   24 1
  42   22   25 1
  43   27   28 ar
  44   27   29 ar
  45   28   32 ar
  46   29   30 ar
  47   30   31 ar
  48   30   52 1
  49   31   32 ar
  50   31   53 1
  51   32   54 1
  52   33   34 1
  53   33   35 1
  54   33   36 1
  55   37   38 1
  56   37   39 1
  57   37   40 1

#	End of record

