#	Name: ASD01940038
#	Creating user name:	WinNT
#	Creation time:	15. 06. 2019 20:11

#	Modifying user name:	WinNT
#	Modification time:	15. 06. 2019 20:11

#	Program:	/corina/corina34_cracker 3.40 0067  02.08.2006

@<TRIPOS>MOLECULE
ASD01940038
  47   49    0    0    0
SMALL
NO_CHARGES


@<TRIPOS>ATOM
   1 C1             0.2708     1.3684     0.1874 C.ar    
   2 C2             0.2607     0.1567    -0.4916 C.ar    
   3 C3            -0.8693    -0.6366    -0.4706 C.ar    
   4 C4            -1.9944    -0.2236     0.2285 C.ar    
   5 C5            -1.9850     0.9866     0.9070 C.ar    
   6 C6            -0.8539     1.7783     0.8918 C.ar    
   7 N7             1.4156     2.1729     0.1666 N.pl3   
   8 C8             1.2926     3.5507     0.1566 C.2     
   9 C9             2.3114     4.4868     0.2625 C.2     
  10 C10            1.8632     5.8080     0.2186 C.2     
  11 N11            0.5842     5.9893     0.0878 N.2     
  12 S12           -0.1549     4.4669     0.0026 S.3     
  13 O13            2.7244     6.8546     0.3090 O.3     
  14 C14            3.7298     4.1214     0.4078 C.2     
  15 N15            4.2722     3.9486     1.6642 N.pl3   
  16 N16            4.4752     3.9606    -0.6536 N.2     
  17 C17            5.6840     3.5848     1.8088 C.3     
  18 C18            6.5430     4.8503     1.7723 C.3     
  19 C19            5.8913     2.8659     3.1434 C.3     
  20 O20            5.6216     3.7688     4.2177 O.3     
  21 O21           -3.1068    -1.0051     0.2483 O.3     
  22 C22           -4.2203    -0.5461    -0.3812 C.ar    
  23 C23           -5.4148    -1.2453    -0.2780 C.ar    
  24 C24           -6.5483    -0.7757    -0.9198 C.ar    
  25 C25           -6.4901     0.3902    -1.6640 C.ar    
  26 C26           -4.1657     0.6251    -1.1229 C.ar    
  27 C27           -5.2987     1.0883    -1.7680 C.ar    
  28 Cl28          -5.4875    -2.7079     0.6543 Cl      
  29 F29           -7.7115    -1.4557    -0.8199 F       
  30 F30           -5.2439     2.2253    -2.4955 F       
  31 H31            1.1362    -0.1647    -1.0361 H       
  32 H32           -0.8775    -1.5785    -0.9988 H       
  33 H33           -2.8612     1.3073     1.4509 H       
  34 H34           -0.8466     2.7202     1.4202 H       
  35 H35            2.2954     1.7645     0.1592 H       
  36 H36            3.0641     7.1591    -0.5436 H       
  37 H37            3.7190     4.0679     2.4519 H       
  38 H38            5.4099     3.7197    -0.5579 H       
  39 H39            5.9746     2.9247     0.9915 H       
  40 H40            7.5934     4.5797     1.8799 H       
  41 H41            6.3954     5.3625     0.8215 H       
  42 H42            6.2524     5.5104     2.5896 H       
  43 H43            5.2143     2.0140     3.2062 H       
  44 H44            6.9217     2.5171     3.2120 H       
  45 H45            5.7332     3.3798     5.0959 H       
  46 H46           -7.3747     0.7554    -2.1645 H       
  47 H47           -3.2380     1.1727    -1.2004 H       
@<TRIPOS>BOND
   1    1    2 ar
   2    1    7 1
   3    1    6 ar
   4    2    3 ar
   5    2   31 1
   6    3    4 ar
   7    3   32 1
   8    4    5 ar
   9    4   21 1
  10    5    6 ar
  11    5   33 1
  12    6   34 1
  13    7    8 1
  14    7   35 1
  15    8    9 2
  16    8   12 1
  17    9   10 1
  18    9   14 1
  19   10   11 2
  20   10   13 1
  21   11   12 1
  22   13   36 1
  23   14   15 1
  24   14   16 2
  25   15   17 1
  26   15   37 1
  27   16   38 1
  28   17   18 1
  29   17   19 1
  30   17   39 1
  31   18   40 1
  32   18   41 1
  33   18   42 1
  34   19   20 1
  35   19   43 1
  36   19   44 1
  37   20   45 1
  38   21   22 1
  39   22   23 ar
  40   22   26 ar
  41   23   24 ar
  42   23   28 1
  43   24   25 ar
  44   24   29 1
  45   25   27 ar
  46   25   46 1
  47   26   27 ar
  48   26   47 1
  49   27   30 1

#	End of record

