#	Name: ASD01814194
#	Creating user name:	WinNT
#	Creation time:	15. 06. 2019 19:31

#	Modifying user name:	WinNT
#	Modification time:	15. 06. 2019 19:31

#	Program:	/corina/corina34_cracker 3.40 0067  02.08.2006

@<TRIPOS>MOLECULE
ASD01814194
  51   55    0    0    0
SMALL
NO_CHARGES


@<TRIPOS>ATOM
   1 N1            -0.3142     1.5506     1.3168 N.2     
   2 C2            -0.3731     0.2949     1.6931 C.2     
   3 C3             0.7812    -0.3630     2.1448 C.2     
   4 C4             1.9577     0.3101     2.1891 C.2     
   5 N5             1.9909     1.6164     1.7917 N.pl3   
   6 C6             0.8424     2.2254     1.3563 C.2     
   7 N7             3.0225     2.5584     1.7224 N.2     
   8 C8             2.5335     3.6939     1.2662 C.2     
   9 C9             1.1796     3.5321     1.0241 C.2     
  10 C10            2.9226     5.1081     0.9121 C.3     
  11 N11            1.7181     5.7976     0.4395 N.am    
  12 C12            0.6183     4.8297     0.5021 C.3     
  13 C13            1.6370     7.0778     0.0261 C.2     
  14 O14            0.5948     7.5035    -0.4336 O.2     
  15 C15            2.8118     7.9622     0.1313 C.ar    
  16 C16            3.1476     8.8166    -0.9285 C.ar    
  17 C17            3.5932     7.9572     1.2903 C.ar    
  18 C18            4.6890     8.7853     1.3836 C.ar    
  19 C19            5.0220     9.6270     0.3306 C.ar    
  20 C20            4.2536     9.6445    -0.8197 C.ar    
  21 O21            2.3932     8.8326    -2.0558 O.3     
  22 C22            2.7960     9.7287    -3.0934 C.3     
  23 C23            3.2112    -0.3738     2.6707 C.3     
  24 Cl24           0.7037    -2.0241     2.6432 Cl      
  25 C25           -1.6857    -0.4436     1.6403 C.3     
  26 C26            1.8322     9.6067    -4.2754 C.3     
  27 N27            2.2452    10.5254    -5.3391 N.pl3   
  28 F28            6.0990    10.4363     0.4319 F       
  29 N29            2.4483    11.9103    -5.2235 N.2     
  30 C30            2.8089    12.3390    -6.4045 C.2     
  31 N31            2.8428    11.3076    -7.2474 N.2     
  32 C32            2.5108    10.2094    -6.6185 C.2     
  33 H33            3.3162     5.6145     1.7934 H       
  34 H34            3.6755     5.0978     0.1240 H       
  35 H35            0.2019     4.6781    -0.4938 H       
  36 H36           -0.1568     5.1947     1.1760 H       
  37 H37            3.3373     7.3046     2.1119 H       
  38 H38            5.2919     8.7806     2.2796 H       
  39 H39            4.5158    10.3042    -1.6336 H       
  40 H40            2.7810    10.7514    -2.7164 H       
  41 H41            3.8050     9.4766    -3.4198 H       
  42 H42            2.9818    -1.4046     2.9410 H       
  43 H43            3.9583    -0.3640     1.8771 H       
  44 H44            3.6002     0.1524     3.5425 H       
  45 H45           -2.4630     0.2233     1.2671 H       
  46 H46           -1.5931    -1.3019     0.9749 H       
  47 H47           -1.9503    -0.7861     2.6407 H       
  48 H48            1.8472     8.5840    -4.6523 H       
  49 H49            0.8232     9.8588    -3.9490 H       
  50 H50            3.0411    13.3632    -6.6564 H       
  51 H51            2.4569     9.2218    -7.0521 H       
@<TRIPOS>BOND
   1    1    2 2
   2    1    6 1
   3    2    3 1
   4    2   25 1
   5    3    4 2
   6    3   24 1
   7    4    5 1
   8    4   23 1
   9    5    7 1
  10    5    6 1
  11    6    9 2
  12    7    8 2
  13    8   10 1
  14    8    9 1
  15    9   12 1
  16   10   11 1
  17   10   33 1
  18   10   34 1
  19   11   12 1
  20   11   13 am
  21   12   35 1
  22   12   36 1
  23   13   14 2
  24   13   15 1
  25   15   17 ar
  26   15   16 ar
  27   16   20 ar
  28   16   21 1
  29   17   18 ar
  30   17   37 1
  31   18   19 ar
  32   18   38 1
  33   19   20 ar
  34   19   28 1
  35   20   39 1
  36   21   22 1
  37   22   26 1
  38   22   40 1
  39   22   41 1
  40   23   42 1
  41   23   43 1
  42   23   44 1
  43   25   45 1
  44   25   46 1
  45   25   47 1
  46   26   27 1
  47   26   48 1
  48   26   49 1
  49   27   29 1
  50   27   32 1
  51   29   30 2
  52   30   31 1
  53   30   50 1
  54   31   32 2
  55   32   51 1

#	End of record

