#	Name: ASD01910175
#	Creating user name:	WinNT
#	Creation time:	15. 06. 2019 19:55

#	Modifying user name:	WinNT
#	Modification time:	15. 06. 2019 19:55

#	Program:	/corina/corina34_cracker 3.40 0067  02.08.2006

@<TRIPOS>MOLECULE
ASD01910175
  40   42    0    0    0
SMALL
NO_CHARGES


@<TRIPOS>ATOM
   1 C1             0.1647     1.6639    -0.3718 C.ar    
   2 C2             0.1011     0.2856    -0.3054 C.ar    
   3 C3             1.2654    -0.4591    -0.1612 C.ar    
   4 C4             2.4928     0.1831    -0.0844 C.ar    
   5 C5             2.5534     1.5680    -0.1518 C.ar    
   6 C6             1.3855     2.3066    -0.2955 C.ar    
   7 N7             3.7885     2.2193    -0.0743 N.am    
   8 C8             4.0024     3.3450    -0.7838 C.2     
   9 C9             5.2625     4.0985    -0.6122 C.ar    
  10 N10            1.2000    -1.8544    -0.0932 N.am    
  11 C11            2.1788    -2.6024    -0.6402 C.2     
  12 C12            5.4871     5.2647    -1.3455 C.ar    
  13 C13            6.6650     5.9641    -1.1808 C.ar    
  14 C14            7.6232     5.5119    -0.2915 C.ar    
  15 C15            7.4073     4.3556     0.4394 C.ar    
  16 C16            6.2304     3.6499     0.2880 C.ar    
  17 O17            3.1596    -2.0654    -1.1173 O.2     
  18 O18            3.1591     3.7408    -1.5648 O.2     
  19 C19            2.0597    -4.0750    -0.6600 C.ar    
  20 Cl20           8.6161     3.7958     1.5526 Cl      
  21 C21            3.0719    -4.8525    -1.2259 C.ar    
  22 C22            2.9551    -6.2264    -1.2414 C.ar    
  23 C23            1.8361    -6.8353    -0.6975 C.ar    
  24 C24            0.8286    -6.0693    -0.1347 C.ar    
  25 C25            0.9370    -4.6949    -0.1077 C.ar    
  26 Cl26           1.6956    -8.5654    -0.7218 Cl      
  27 H27           -0.7413     2.2401    -0.4880 H       
  28 H28           -0.8547    -0.2138    -0.3653 H       
  29 H29            3.3992    -0.3934     0.0280 H       
  30 H30            1.4320     3.3843    -0.3484 H       
  31 H31            4.4912     1.8608     0.4901 H       
  32 H32            0.4503    -2.2839     0.3476 H       
  33 H33            4.7403     5.6188    -2.0408 H       
  34 H34            6.8395     6.8665    -1.7478 H       
  35 H35            8.5437     6.0628    -0.1670 H       
  36 H36            6.0627     2.7482     0.8583 H       
  37 H37            3.9445    -4.3789    -1.6509 H       
  38 H38            3.7374    -6.8289    -1.6789 H       
  39 H39           -0.0415    -6.5497     0.2879 H       
  40 H40            0.1510    -4.0986     0.3318 H       
@<TRIPOS>BOND
   1    1    2 ar
   2    1    6 ar
   3    1   27 1
   4    2    3 ar
   5    2   28 1
   6    3    4 ar
   7    3   10 1
   8    4    5 ar
   9    4   29 1
  10    5    6 ar
  11    5    7 1
  12    6   30 1
  13    7    8 am
  14    7   31 1
  15    8    9 1
  16    8   18 2
  17    9   12 ar
  18    9   16 ar
  19   10   11 am
  20   10   32 1
  21   11   17 2
  22   11   19 1
  23   12   13 ar
  24   12   33 1
  25   13   14 ar
  26   13   34 1
  27   14   15 ar
  28   14   35 1
  29   15   16 ar
  30   15   20 1
  31   16   36 1
  32   19   21 ar
  33   19   25 ar
  34   21   22 ar
  35   21   37 1
  36   22   23 ar
  37   22   38 1
  38   23   24 ar
  39   23   26 1
  40   24   25 ar
  41   24   39 1
  42   25   40 1

#	End of record

