#	Name: ASD05313024
#	Creating user name:	WinNT
#	Creation time:	15. 06. 2019 20:58

#	Modifying user name:	WinNT
#	Modification time:	15. 06. 2019 20:58

#	Program:	/corina/corina34_cracker 3.40 0067  02.08.2006

@<TRIPOS>MOLECULE
ASD05313024
  40   42    0    0    0
SMALL
NO_CHARGES


@<TRIPOS>ATOM
   1 C1            -0.1687     1.2376     0.5583 C.2     
   2 C2            -0.0813    -0.2625     0.4111 C.3     
   3 N3             0.9266     2.0583     0.6160 N.pl3   
   4 N4             1.3220    -0.5801     0.0847 N.am    
   5 C5             2.3830     0.1117     0.8319 C.3     
   6 C6             2.3167     1.6144     0.5330 C.3     
   7 N7            -0.8710     3.2194     0.7746 N.2     
   8 N8            -1.2213     1.9846     0.6573 N.2     
   9 C9             0.4407     3.3170     0.7567 C.2     
  10 N10            1.1837     4.4819     0.8636 N.3     
  11 C11            0.8692     5.4093    -0.2314 C.3     
  12 C12            0.9763     5.1205     2.1702 C.3     
  13 C13            1.6234    -1.4803    -0.8719 C.2     
  14 O14            2.7814    -1.6576    -1.1966 O.2     
  15 C15            0.5463    -2.2519    -1.5262 C.ar    
  16 C16            0.5469    -2.4209    -2.9133 C.ar    
  17 C17           -0.4633    -3.1433    -3.5175 C.ar    
  18 C18           -1.4735    -3.6978    -2.7526 C.ar    
  19 C19           -1.4797    -3.5334    -1.3787 C.ar    
  20 C20           -0.4736    -2.8200    -0.7610 C.ar    
  21 C21           -0.4652    -3.3273    -5.0132 C.3     
  22 F22           -1.5782    -4.0876    -5.3881 F       
  23 F23           -0.5235    -2.0764    -5.6369 F       
  24 F24            0.7042    -3.9888    -5.4032 F       
  25 Cl25           1.8137    -1.7244    -3.8745 Cl      
  26 H26           -0.3644    -0.7454     1.3464 H       
  27 H27           -0.7355    -0.5962    -0.3943 H       
  28 H28            2.2425    -0.0533     1.9001 H       
  29 H29            3.3548    -0.2771     0.5279 H       
  30 H30            2.7004     1.8040    -0.4695 H       
  31 H31            2.9168     2.1577     1.2628 H       
  32 H32           -0.1896     5.6657    -0.1976 H       
  33 H33            1.4661     6.3149    -0.1232 H       
  34 H34            1.0980     4.9353    -1.1859 H       
  35 H35            1.2230     4.4143     2.9630 H       
  36 H36            1.6185     5.9974     2.2520 H       
  37 H37           -0.0664     5.4236     2.2651 H       
  38 H38           -2.2614    -4.2615    -3.2300 H       
  39 H39           -2.2722    -3.9686    -0.7878 H       
  40 H40           -0.4775    -2.6972     0.3120 H       
@<TRIPOS>BOND
   1    1    2 1
   2    1    3 1
   3    1    8 2
   4    2    4 1
   5    2   26 1
   6    2   27 1
   7    3    6 1
   8    3    9 1
   9    4    5 1
  10    4   13 am
  11    5    6 1
  12    5   28 1
  13    5   29 1
  14    6   30 1
  15    6   31 1
  16    7    8 1
  17    7    9 2
  18    9   10 1
  19   10   11 1
  20   10   12 1
  21   11   32 1
  22   11   33 1
  23   11   34 1
  24   12   35 1
  25   12   36 1
  26   12   37 1
  27   13   14 2
  28   13   15 1
  29   15   16 ar
  30   15   20 ar
  31   16   17 ar
  32   16   25 1
  33   17   18 ar
  34   17   21 1
  35   18   19 ar
  36   18   38 1
  37   19   20 ar
  38   19   39 1
  39   20   40 1
  40   21   22 1
  41   21   23 1
  42   21   24 1

#	End of record

