#	Name: ASD08150443
#	Creating user name:	WinNT
#	Creation time:	15. 06. 2019 21:16

#	Modifying user name:	WinNT
#	Modification time:	15. 06. 2019 21:16

#	Program:	/corina/corina34_cracker 3.40 0067  02.08.2006

@<TRIPOS>MOLECULE
ASD08150443
  28   30    0    0    0
SMALL
NO_CHARGES


@<TRIPOS>ATOM
   1 C1            -0.0157     1.3047     0.0092 C.ar    
   2 N2             0.0021    -0.0041     0.0020 N.ar    
   3 C3             1.1706    -0.6894    -0.0129 C.ar    
   4 C4             2.3580     0.0485    -0.0203 C.ar    
   5 C5             2.2823     1.4564    -0.0116 C.ar    
   6 N6             1.0892     2.0331     0.0026 N.ar    
   7 C7             1.3927    -2.0704    -0.0224 C.2     
   8 C8             2.6821    -2.4480    -0.0368 C.2     
   9 S9             3.7350    -1.0431    -0.0394 S.3     
  10 C10            3.1446    -3.8375    -0.0492 C.2     
  11 O11            4.3331    -4.0812    -0.0619 O.2     
  12 N12            3.4345     2.2232    -0.0181 N.3     
  13 C13            3.1128     3.6577    -0.0069 C.3     
  14 C14            4.4119     4.4661     0.0457 C.3     
  15 O15            5.2375     4.1050    -1.0648 O.3     
  16 C16            5.5707     2.7149    -1.1065 C.3     
  17 C17            4.2834     1.8887    -1.1708 C.3     
  18 Cl18          -1.5497     2.1174     0.0208 Cl      
  19 H19            0.5827    -2.7848    -0.0181 H       
  20 H20            2.4277    -4.6453    -0.0470 H       
  21 H21            2.5610     3.9140    -0.9113 H       
  22 H22            2.5053     3.8876     0.8684 H       
  23 H23            4.1807     5.5302    -0.0034 H       
  24 H24            4.9377     4.2498     0.9757 H       
  25 H25            6.1776     2.5124    -1.9890 H       
  26 H26            6.1303     2.4477    -0.2101 H       
  27 H27            4.5304     0.8274    -1.1452 H       
  28 H28            3.7503     2.1168    -2.0938 H       
@<TRIPOS>BOND
   1    1    2 ar
   2    1    6 ar
   3    1   18 1
   4    2    3 ar
   5    3    4 ar
   6    3    7 1
   7    4    5 ar
   8    4    9 1
   9    5    6 ar
  10    5   12 1
  11    7    8 2
  12    7   19 1
  13    8    9 1
  14    8   10 1
  15   10   11 2
  16   10   20 1
  17   12   13 1
  18   12   17 1
  19   13   14 1
  20   13   21 1
  21   13   22 1
  22   14   15 1
  23   14   23 1
  24   14   24 1
  25   15   16 1
  26   16   17 1
  27   16   25 1
  28   16   26 1
  29   17   27 1
  30   17   28 1

#	End of record

