#	Name: ASD01811170
#	Creating user name:	WinNT
#	Creation time:	15. 06. 2019 19:26

#	Modifying user name:	WinNT
#	Modification time:	15. 06. 2019 19:26

#	Program:	/corina/corina34_cracker 3.40 0067  02.08.2006

@<TRIPOS>MOLECULE
ASD01811170
  66   70    0    0    0
SMALL
NO_CHARGES


@<TRIPOS>ATOM
   1 C1            -7.8778     2.0224     2.3663 C.1     
   2 C2            -6.7195     2.8377     2.1557 C.ar    
   3 C3            -5.4709     2.4144     2.6155 C.ar    
   4 C4            -4.3593     3.2047     2.4092 C.ar    
   5 C5            -4.4796     4.4146     1.7488 C.ar    
   6 C6            -5.7139     4.8404     1.2909 C.ar    
   7 C7            -6.8327     4.0568     1.4845 C.ar    
   8 N8            -8.7967     1.3757     2.5335 N.1     
   9 N9            -1.8524     7.7257     1.5146 N.am    
  10 C10           -2.3220     7.1896     0.2298 C.3     
  11 C11           -3.5732     6.3411     0.4773 C.3     
  12 C12           -3.2608     5.2728     1.5276 C.3     
  13 C13           -2.8672     5.9482     2.8433 C.3     
  14 C14           -1.6079     6.7922     2.6226 C.3     
  15 F15           -2.2033     4.4739     1.0795 F       
  16 C16           -1.6445     9.0480     1.6721 C.2     
  17 C17           -1.2576     9.5831     2.9952 C.ar    
  18 C18           -2.0165    10.5931     3.5910 C.ar    
  19 C19           -1.6565    11.0937     4.8261 C.ar    
  20 C20           -0.5454    10.6001     5.4811 C.ar    
  21 C21            0.2218     9.5902     4.8970 C.ar    
  22 C22           -0.1386     9.0770     3.6529 C.ar    
  23 O23           -1.7750     9.8006     0.7267 O.2     
  24 N24            2.8780     8.7329     7.1040 N.2     
  25 N25            1.8061     9.3787     6.8114 N.2     
  26 C26            1.4117     9.0631     5.5997 C.2     
  27 N27            2.3132     8.1501     5.1079 N.pl3   
  28 C28            3.2315     7.9678     6.0988 C.2     
  29 O29            4.3094     7.1483     6.0538 O.3     
  30 C30            5.1447     7.1107     7.2127 C.3     
  31 C31           -3.2306    11.1379     2.8836 C.3     
  32 C32           -4.4102    10.1851     3.0879 C.3     
  33 C33           -0.1598    11.1530     6.8289 C.3     
  34 C34            0.0342    12.6785     6.8363 C.3     
  35 C35           -0.6665    12.6819     8.2053 C.3     
  36 C36           -1.3569    11.3795     7.7672 C.3     
  37 H37           -5.3757     1.4706     3.1318 H       
  38 H38           -3.3929     2.8786     2.7643 H       
  39 H39           -5.8008     5.7860     0.7765 H       
  40 H40           -7.7947     4.3881     1.1223 H       
  41 H41           -2.5654     8.0124    -0.4424 H       
  42 H42           -1.5426     6.5704    -0.2145 H       
  43 H43           -4.3804     6.9795     0.8366 H       
  44 H44           -3.8760     5.8596    -0.4526 H       
  45 H45           -3.6810     6.5903     3.1803 H       
  46 H46           -2.6674     5.1871     3.5975 H       
  47 H47           -0.7704     6.1407     2.3734 H       
  48 H48           -1.3803     7.3529     3.5292 H       
  49 H49           -2.2463    11.8751     5.2821 H       
  50 H50            0.4491     8.2930     3.1986 H       
  51 H51            2.2993     7.7241     4.2366 H       
  52 H52            5.9686     6.4172     7.0443 H       
  53 H53            5.5421     8.1070     7.4065 H       
  54 H54            4.5604     6.7793     8.0711 H       
  55 H55           -3.4799    12.1174     3.2918 H       
  56 H56           -3.0192    11.2312     1.8184 H       
  57 H57           -4.1609     9.2056     2.6798 H       
  58 H58           -4.6216    10.0918     4.1531 H       
  59 H59           -5.2883    10.5791     2.5763 H       
  60 H60            0.6619    10.6061     7.2914 H       
  61 H61            1.0791    12.9856     6.8799 H       
  62 H62           -0.5274    13.1939     6.0571 H       
  63 H63            0.0160    12.5531     9.0454 H       
  64 H64           -1.3544    13.5164     8.3416 H       
  65 H65           -2.2988    11.5398     7.2425 H       
  66 H66           -1.4350    10.6380     8.5622 H       
@<TRIPOS>BOND
   1    1    2 1
   2    1    8 3
   3    2    3 ar
   4    2    7 ar
   5    3    4 ar
   6    3   37 1
   7    4    5 ar
   8    4   38 1
   9    5    6 ar
  10    5   12 1
  11    6    7 ar
  12    6   39 1
  13    7   40 1
  14    9   10 1
  15    9   14 1
  16    9   16 am
  17   10   11 1
  18   10   41 1
  19   10   42 1
  20   11   12 1
  21   11   43 1
  22   11   44 1
  23   12   13 1
  24   12   15 1
  25   13   14 1
  26   13   45 1
  27   13   46 1
  28   14   47 1
  29   14   48 1
  30   16   17 1
  31   16   23 2
  32   17   18 ar
  33   17   22 ar
  34   18   19 ar
  35   18   31 1
  36   19   20 ar
  37   19   49 1
  38   20   21 ar
  39   20   33 1
  40   21   22 ar
  41   21   26 1
  42   22   50 1
  43   24   25 1
  44   24   28 2
  45   25   26 2
  46   26   27 1
  47   27   28 1
  48   27   51 1
  49   28   29 1
  50   29   30 1
  51   30   52 1
  52   30   53 1
  53   30   54 1
  54   31   32 1
  55   31   55 1
  56   31   56 1
  57   32   57 1
  58   32   58 1
  59   32   59 1
  60   33   34 1
  61   33   36 1
  62   33   60 1
  63   34   35 1
  64   34   61 1
  65   34   62 1
  66   35   36 1
  67   35   63 1
  68   35   64 1
  69   36   65 1
  70   36   66 1

#	End of record

