#	Name: ASD01100076
#	Creating user name:	WinNT
#	Creation time:	15. 06. 2019 18:58

#	Modifying user name:	WinNT
#	Modification time:	15. 06. 2019 18:58

#	Program:	/corina/corina34_cracker 3.40 0067  02.08.2006

@<TRIPOS>MOLECULE
ASD01100076
  35   37    0    0    0
SMALL
NO_CHARGES


@<TRIPOS>ATOM
   1 C1             0.0432     1.1421    -0.0634 C.ar    
   2 C2             0.1432    -0.2175     0.1726 C.ar    
   3 C3             1.3864    -0.7994     0.3457 C.ar    
   4 C4             2.5277    -0.0224     0.2829 C.ar    
   5 C5             2.4271     1.3362     0.0476 C.ar    
   6 C6             1.1852     1.9181    -0.1260 C.ar    
   7 C7             3.6719     2.1830    -0.0203 C.3     
   8 Cl8           -1.2908    -1.1928     0.2519 Cl      
   9 C9             3.6756     2.9683    -1.3065 C.2     
  10 N10            4.6988     3.8001    -1.5852 N.am    
  11 O11            2.7578     2.8519    -2.0908 O.2     
  12 C12            4.7022     4.5245    -2.7715 C.2     
  13 N13            5.6340     5.3490    -3.1353 N.2     
  14 C14            5.4763     5.9537    -4.2979 C.2     
  15 C15            4.3580     5.6245    -4.9473 C.2     
  16 S16            3.4817     4.4523    -3.9666 S.3     
  17 C17            4.6515     3.8359     3.2293 C.ar    
  18 C18            4.6276     2.9641     2.1571 C.ar    
  19 C19            3.6971     3.1335     1.1488 C.ar    
  20 C20            2.7901     4.1748     1.2124 C.ar    
  21 C21            2.8131     5.0472     2.2841 C.ar    
  22 C22            3.7440     4.8782     3.2935 C.ar    
  23 Cl23           3.7731     5.9732     4.6403 Cl      
  24 H24           -0.9267     1.5962    -0.2031 H       
  25 H25            1.4650    -1.8606     0.5303 H       
  26 H26            3.4982    -0.4765     0.4180 H       
  27 H27            1.1073     2.9795    -0.3098 H       
  28 H28            4.5512     1.5398     0.0152 H       
  29 H29            5.4328     3.8932    -0.9579 H       
  30 H30            6.1942     6.6579    -4.6917 H       
  31 H31            4.0462     6.0073    -5.9078 H       
  32 H32            5.3759     3.7010     4.0190 H       
  33 H33            5.3359     2.1504     2.1069 H       
  34 H34            2.0636     4.3069     0.4242 H       
  35 H35            2.1042     5.8605     2.3338 H       
@<TRIPOS>BOND
   1    1    2 ar
   2    1    6 ar
   3    1   24 1
   4    2    3 ar
   5    2    8 1
   6    3    4 ar
   7    3   25 1
   8    4    5 ar
   9    4   26 1
  10    5    6 ar
  11    5    7 1
  12    6   27 1
  13    7    9 1
  14    7   19 1
  15    7   28 1
  16    9   10 am
  17    9   11 2
  18   10   12 1
  19   10   29 1
  20   12   13 2
  21   12   16 1
  22   13   14 1
  23   14   15 2
  24   14   30 1
  25   15   16 1
  26   15   31 1
  27   17   18 ar
  28   17   22 ar
  29   17   32 1
  30   18   19 ar
  31   18   33 1
  32   19   20 ar
  33   20   21 ar
  34   20   34 1
  35   21   22 ar
  36   21   35 1
  37   22   23 1

#	End of record

