#	Name: ASD05313048
#	Creating user name:	WinNT
#	Creation time:	15. 06. 2019 20:58

#	Modifying user name:	WinNT
#	Modification time:	15. 06. 2019 20:58

#	Program:	/corina/corina34_cracker 3.40 0067  02.08.2006

@<TRIPOS>MOLECULE
ASD05313048
  41   44    0    0    0
SMALL
NO_CHARGES


@<TRIPOS>ATOM
   1 C1            -0.0722     0.8169     1.0245 C.2     
   2 C2             0.1139    -0.6194     0.5967 C.3     
   3 N3             0.9305     1.7304     1.0508 N.pl3   
   4 N4             1.4570    -0.7185    -0.0052 N.am    
   5 C5             2.5714    -0.0370     0.6708 C.3     
   6 C6             2.3171     1.4751     0.6645 C.3     
   7 N7            -0.9039     2.6398     1.7087 N.2     
   8 N8            -1.1569     1.4077     1.4273 N.2     
   9 C9             0.3720     2.8900     1.4953 C.2     
  10 C10            1.0646     4.1805     1.7018 C.ar    
  11 C11            0.3476     5.2837     2.1655 C.ar    
  12 C12            1.0083     6.4841     2.3545 C.ar    
  13 C13            2.3684     6.5441     2.0733 C.ar    
  14 C14            3.0177     5.4089     1.6156 C.ar    
  15 N15            2.3646     4.2775     1.4495 N.ar    
  16 F16            3.0501     7.6979     2.2442 F       
  17 C17            1.6574    -1.4141    -1.1421 C.2     
  18 O18            2.7490    -1.4033    -1.6769 O.2     
  19 C19            0.5501    -2.1900    -1.7384 C.ar    
  20 C20            0.3185    -2.1379    -3.1154 C.ar    
  21 C21           -0.7184    -2.8659    -3.6653 C.ar    
  22 C22           -1.5261    -3.6441    -2.8560 C.ar    
  23 C23           -1.3019    -3.6992    -1.4916 C.ar    
  24 C24           -0.2658    -2.9827    -0.9296 C.ar    
  25 C25           -0.9706    -2.8117    -5.1501 C.3     
  26 F26           -2.0643    -3.6245    -5.4673 F       
  27 F27           -1.2442    -1.4931    -5.5289 F       
  28 F28            0.1625    -3.2674    -5.8325 F       
  29 Cl29           1.3309    -1.1606    -4.1320 Cl      
  30 H30            0.0450    -1.2774     1.4629 H       
  31 H31           -0.6441    -0.8898    -0.1384 H       
  32 H32            2.6434    -0.3896     1.6997 H       
  33 H33            3.5020    -0.2519     0.1455 H       
  34 H34            2.4952     1.8699    -0.3357 H       
  35 H35            2.9879     1.9604     1.3734 H       
  36 H36           -0.7090     5.2017     2.3737 H       
  37 H37            0.4795     7.3552     2.7121 H       
  38 H38            4.0742     5.4516     1.3957 H       
  39 H39           -2.3358    -4.2111    -3.2909 H       
  40 H40           -1.9371    -4.3085    -0.8657 H       
  41 H41           -0.0893    -3.0312     0.1348 H       
@<TRIPOS>BOND
   1    1    2 1
   2    1    3 1
   3    1    8 2
   4    2    4 1
   5    2   30 1
   6    2   31 1
   7    3    6 1
   8    3    9 1
   9    4    5 1
  10    4   17 am
  11    5    6 1
  12    5   32 1
  13    5   33 1
  14    6   34 1
  15    6   35 1
  16    7    8 1
  17    7    9 2
  18    9   10 1
  19   10   11 ar
  20   10   15 ar
  21   11   12 ar
  22   11   36 1
  23   12   13 ar
  24   12   37 1
  25   13   14 ar
  26   13   16 1
  27   14   15 ar
  28   14   38 1
  29   17   18 2
  30   17   19 1
  31   19   20 ar
  32   19   24 ar
  33   20   21 ar
  34   20   29 1
  35   21   22 ar
  36   21   25 1
  37   22   23 ar
  38   22   39 1
  39   23   24 ar
  40   23   40 1
  41   24   41 1
  42   25   26 1
  43   25   27 1
  44   25   28 1

#	End of record

