#	Name: ASD01917827
#	Creating user name:	WinNT
#	Creation time:	15. 06. 2019 20:10

#	Modifying user name:	WinNT
#	Modification time:	15. 06. 2019 20:10

#	Program:	/corina/corina34_cracker 3.40 0067  02.08.2006

@<TRIPOS>MOLECULE
ASD01917827
  48   52    0    0    0
SMALL
NO_CHARGES


@<TRIPOS>ATOM
   1 C1             0.0246     1.2316    -0.1632 C.2     
   2 C2            -0.0106    -0.1146    -0.1366 C.2     
   3 C3            -1.2722    -0.9352    -0.0468 C.3     
   4 C4            -2.4116    -0.0387     0.4536 C.3     
   5 N5            -2.3750     1.2388    -0.2739 N.am    
   6 C6            -1.1996     2.1108    -0.0964 C.3     
   7 C7            -3.3897     1.6029    -1.0828 C.2     
   8 O8            -4.2904     0.8217    -1.3168 O.2     
   9 O9             1.3099     1.5983    -0.2509 O.3     
  10 C10            2.0494     0.4782    -0.2738 C.2     
  11 N11            1.2534    -0.5535    -0.2045 N.2     
  12 C12            3.5526     0.4215    -0.3650 C.3     
  13 O13            3.9451     0.3770    -1.7384 O.3     
  14 C14            5.2780     0.3228    -1.9976 C.ar    
  15 C15            5.7296     0.2775    -3.3086 C.ar    
  16 C16            7.0850     0.2224    -3.5695 C.ar    
  17 C17            7.9914     0.2123    -2.5254 C.ar    
  18 C18            7.5439     0.2569    -1.2180 C.ar    
  19 C19            6.1897     0.3183    -0.9519 C.ar    
  20 C20           -3.4069     2.9569    -1.6869 C.ar    
  21 C21           -4.3769     3.2640    -2.6522 C.ar    
  22 C22           -4.4039     4.5073    -3.2159 C.ar    
  23 C23           -3.4429     5.4477    -2.8009 C.ar    
  24 C24           -2.4881     5.0733    -1.8193 C.ar    
  25 N25           -2.5131     3.8464    -1.3003 N.ar    
  26 C26           -3.4116     6.7445    -3.3387 C.ar    
  27 C27           -2.4669     7.6274    -2.9132 C.ar    
  28 C28           -1.5275     7.2626    -1.9495 C.ar    
  29 C29           -1.5273     6.0162    -1.4055 C.ar    
  30 H30           -1.5228    -1.3288    -1.0319 H       
  31 H31           -1.1228    -1.7595     0.6506 H       
  32 H32           -3.3676    -0.5315     0.2766 H       
  33 H33           -2.2880     0.1461     1.5207 H       
  34 H34           -1.2480     2.6057     0.8736 H       
  35 H35           -1.1662     2.8550    -0.8921 H       
  36 H36            3.9789     1.3071     0.1062 H       
  37 H37            3.9141    -0.4713     0.1453 H       
  38 H38            5.0220     0.2850    -4.1245 H       
  39 H39            7.4371     0.1868    -4.5899 H       
  40 H40            9.0507     0.1692    -2.7315 H       
  41 H41            8.2538     0.2482    -0.4041 H       
  42 H42            5.8406     0.3531     0.0695 H       
  43 H43           -5.1003     2.5190    -2.9490 H       
  44 H44           -5.1430     4.7621    -3.9610 H       
  45 H45           -4.1330     7.0397    -4.0863 H       
  46 H46           -2.4445     8.6243    -3.3280 H       
  47 H47           -0.7882     7.9819    -1.6293 H       
  48 H48           -0.7925     5.7501    -0.6601 H       
@<TRIPOS>BOND
   1    1    2 2
   2    1    9 1
   3    1    6 1
   4    2    3 1
   5    2   11 1
   6    3    4 1
   7    3   30 1
   8    3   31 1
   9    4    5 1
  10    4   32 1
  11    4   33 1
  12    5    6 1
  13    5    7 am
  14    6   34 1
  15    6   35 1
  16    7    8 2
  17    7   20 1
  18    9   10 1
  19   10   11 2
  20   10   12 1
  21   12   13 1
  22   12   36 1
  23   12   37 1
  24   13   14 1
  25   14   15 ar
  26   14   19 ar
  27   15   16 ar
  28   15   38 1
  29   16   17 ar
  30   16   39 1
  31   17   18 ar
  32   17   40 1
  33   18   19 ar
  34   18   41 1
  35   19   42 1
  36   20   21 ar
  37   20   25 ar
  38   21   22 ar
  39   21   43 1
  40   22   23 ar
  41   22   44 1
  42   23   24 ar
  43   23   26 ar
  44   24   25 ar
  45   24   29 ar
  46   26   27 ar
  47   26   45 1
  48   27   28 ar
  49   27   46 1
  50   28   29 ar
  51   28   47 1
  52   29   48 1

#	End of record

