#	Name: ASD01908319
#	Creating user name:	WinNT
#	Creation time:	15. 06. 2019 19:54

#	Modifying user name:	WinNT
#	Modification time:	15. 06. 2019 19:54

#	Program:	/corina/corina34_cracker 3.40 0067  02.08.2006

@<TRIPOS>MOLECULE
ASD01908319
  26   28    0    0    0
SMALL
NO_CHARGES


@<TRIPOS>ATOM
   1 S1            -0.0227     1.7556    -0.0029 S.3     
   2 C2             0.0020    -0.0056    -0.0255 C.2     
   3 N3             1.2386    -0.4160    -0.0335 N.2     
   4 C4             2.1756     0.5102    -0.0237 C.2     
   5 C5             1.7395     1.7779    -0.0064 C.2     
   6 N6             3.5426     0.1902    -0.0303 N.pl3   
   7 C7             3.9464    -1.1367     0.0636 C.ar    
   8 C8             5.2953    -1.4573    -0.0559 C.ar    
   9 C9             5.6829    -2.7813     0.0400 C.ar    
  10 C10            4.7052    -3.7445     0.2531 C.ar    
  11 C11            3.3853    -3.3556     0.3621 C.ar    
  12 N12            3.0446    -2.0840     0.2715 N.ar    
  13 N13           -3.2695    -1.5707    -0.0379 N.pl3   
  14 N14           -2.4343    -2.6941    -0.0532 N.2     
  15 C15           -1.1923    -2.2899    -0.0508 C.2     
  16 C16           -1.1912    -0.8795    -0.0337 C.2     
  17 C17           -2.4948    -0.4682    -0.0261 C.2     
  18 H18            2.3612     2.6610     0.0035 H       
  19 H19            4.2054     0.8950    -0.1004 H       
  20 H20            6.0294    -0.6827    -0.2217 H       
  21 H21            6.7225    -3.0601    -0.0491 H       
  22 H22            4.9749    -4.7873     0.3323 H       
  23 H23            2.6219    -4.1014     0.5278 H       
  24 H24           -4.2394    -1.5836    -0.0397 H       
  25 H25           -0.3186    -2.9247    -0.0598 H       
  26 H26           -2.8410     0.5548    -0.0129 H       
@<TRIPOS>BOND
   1    1    2 1
   2    1    5 1
   3    2    3 2
   4    2   16 1
   5    3    4 1
   6    4    5 2
   7    4    6 1
   8    5   18 1
   9    6    7 1
  10    6   19 1
  11    7    8 ar
  12    7   12 ar
  13    8    9 ar
  14    8   20 1
  15    9   10 ar
  16    9   21 1
  17   10   11 ar
  18   10   22 1
  19   11   12 ar
  20   11   23 1
  21   13   14 1
  22   13   17 1
  23   13   24 1
  24   14   15 2
  25   15   16 1
  26   15   25 1
  27   16   17 2
  28   17   26 1

#	End of record

