#	Name: ASD07330011
#	Creating user name:	WinNT
#	Creation time:	15. 06. 2019 21:11

#	Modifying user name:	WinNT
#	Modification time:	15. 06. 2019 21:11

#	Program:	/corina/corina34_cracker 3.40 0067  02.08.2006

@<TRIPOS>MOLECULE
ASD07330011
  80   84    0    0    0
SMALL
NO_CHARGES


@<TRIPOS>ATOM
   1 C1            -0.7129     2.1633     1.3008 C.ar    
   2 C2             0.2578     2.3083     2.2809 C.ar    
   3 N3             1.4006     1.6575     2.2253 N.ar    
   4 C4             1.6785     0.8281     1.2242 C.ar    
   5 C5             0.7336     0.6328     0.1913 C.ar    
   6 C6            -0.4830     1.3140     0.2328 C.ar    
   7 N7             2.8554     0.1578     1.1657 N.2     
   8 C8             3.1315    -0.6534     0.1894 C.2     
   9 N9             2.2828    -0.8997    -0.8427 N.am    
  10 C10            1.0749    -0.2906    -0.8987 C.2     
  11 O11            0.3024    -0.5001    -1.8158 O.2     
  12 C12            2.6606    -1.7906    -1.8570 C.ar    
  13 C13            2.0534    -3.0359    -1.9493 C.ar    
  14 C14            2.4256    -3.9127    -2.9487 C.ar    
  15 C15            3.4061    -3.5497    -3.8607 C.ar    
  16 C16            4.0132    -2.3055    -3.7690 C.ar    
  17 C17            3.6381    -1.4258    -2.7732 C.ar    
  18 C18            4.4635    -1.3580     0.2018 C.3     
  19 C19            5.3818    -0.6946     1.2302 C.3     
  20 N20            4.2681    -2.7656     0.5578 N.am    
  21 C21            4.7822    -3.8210    -0.3186 C.3     
  22 C22            6.1339    -4.2692     0.1743 C.ar    
  23 C23            6.8963    -5.1522    -0.5883 C.ar    
  24 C24            8.1456    -5.5641    -0.1286 C.ar    
  25 C25            8.6226    -5.0937     1.0832 C.ar    
  26 C26            7.8568    -4.2141     1.8369 C.ar    
  27 C27            6.6196    -3.8009     1.3784 C.ar    
  28 B28            6.3488    -5.6818    -1.9611 Du      
  29 O29            7.2208    -5.7988    -3.0758 O.3     
  30 O30            4.9816    -6.0439    -2.0882 O.3     
  31 C31            3.6154    -3.0896     1.6916 C.2     
  32 C32            3.3108    -4.5330     1.9995 C.3     
  33 O33            3.2732    -2.2195     2.4641 O.2     
  34 C34            2.4761    -4.6142     3.2515 C.ar    
  35 C35            1.0965    -4.5819     3.1653 C.ar    
  36 C36            3.0901    -4.7268     4.4848 C.ar    
  37 C37            2.3255    -4.8019     5.6338 C.ar    
  38 C38            0.9442    -4.7643     5.5491 C.ar    
  39 C39            0.3301    -4.6568     4.3126 C.ar    
  40 F40            0.1959    -4.8375     6.6715 F       
  41 C41           -1.1734    -4.6152     4.2187 C.3     
  42 F42           -1.5541    -4.5052     2.8770 F       
  43 F43           -1.7071    -5.7897     4.7600 F       
  44 F44           -1.6549    -3.5122     4.9320 F       
  45 O45            3.7725    -4.4136    -4.8443 O.3     
  46 C46            5.0646    -5.0723    -6.7775 C.3     
  47 C47            4.7882    -3.9743    -5.7484 C.3     
  48 O48            9.8405    -5.4934     1.5353 O.3     
  49 C49           10.2697    -4.9687     2.7932 C.3     
  50 H50           -1.6437     2.7062     1.3731 H       
  51 H51            0.0711     2.9729     3.1115 H       
  52 H52           -1.2221     1.1823    -0.5436 H       
  53 H53            1.2903    -3.3187    -1.2392 H       
  54 H54            1.9536    -4.8815    -3.0204 H       
  55 H55            4.7767    -2.0236    -4.4790 H       
  56 H56            4.1105    -0.4572    -2.7021 H       
  57 H57            4.9182    -1.2930    -0.7867 H       
  58 H58            5.5881     0.3313     0.9248 H       
  59 H59            4.8940    -0.6924     2.2049 H       
  60 H60            6.3176    -1.2499     1.2934 H       
  61 H61            4.0942    -4.6664    -0.3114 H       
  62 H62            4.8750    -3.4366    -1.3344 H       
  63 H63            8.7399    -6.2485    -0.7157 H       
  64 H64            8.2303    -3.8486     2.7820 H       
  65 H65            6.0279    -3.1164     1.9682 H       
  66 H66            8.1113    -5.4574    -2.9160 H       
  67 H67            4.4676    -5.9301    -1.2771 H       
  68 H68            2.7618    -4.9739     1.1675 H       
  69 H69            4.2434    -5.0773     2.1485 H       
  70 H70            0.6178    -4.4977     2.2008 H       
  71 H71            4.1677    -4.7565     4.5506 H       
  72 H72            2.8055    -4.8901     6.5972 H       
  73 H73            5.8394    -4.7373    -7.4671 H       
  74 H74            5.3994    -5.9743    -6.2653 H       
  75 H75            4.1519    -5.2875    -7.3332 H       
  76 H76            4.4534    -3.0723    -6.2606 H       
  77 H77            5.7009    -3.7591    -5.1927 H       
  78 H78           10.3213    -3.8815     2.7348 H       
  79 H79            9.5602    -5.2576     3.5686 H       
  80 H80           11.2551    -5.3667     3.0357 H       
@<TRIPOS>BOND
   1    1    2 ar
   2    1    6 ar
   3    1   50 1
   4    2    3 ar
   5    2   51 1
   6    3    4 ar
   7    4    5 ar
   8    4    7 1
   9    5    6 ar
  10    5   10 1
  11    6   52 1
  12    7    8 2
  13    8    9 1
  14    8   18 1
  15    9   10 am
  16    9   12 1
  17   10   11 2
  18   12   13 ar
  19   12   17 ar
  20   13   14 ar
  21   13   53 1
  22   14   15 ar
  23   14   54 1
  24   15   16 ar
  25   15   45 1
  26   16   17 ar
  27   16   55 1
  28   17   56 1
  29   18   19 1
  30   18   20 1
  31   18   57 1
  32   19   58 1
  33   19   59 1
  34   19   60 1
  35   20   21 1
  36   20   31 am
  37   21   22 1
  38   21   61 1
  39   21   62 1
  40   22   23 ar
  41   22   27 ar
  42   23   24 ar
  43   23   28 1
  44   24   25 ar
  45   24   63 1
  46   25   26 ar
  47   25   48 1
  48   26   27 ar
  49   26   64 1
  50   27   65 1
  51   28   29 1
  52   28   30 1
  53   29   66 1
  54   30   67 1
  55   31   32 1
  56   31   33 2
  57   32   34 1
  58   32   68 1
  59   32   69 1
  60   34   35 ar
  61   34   36 ar
  62   35   39 ar
  63   35   70 1
  64   36   37 ar
  65   36   71 1
  66   37   38 ar
  67   37   72 1
  68   38   39 ar
  69   38   40 1
  70   39   41 1
  71   41   42 1
  72   41   43 1
  73   41   44 1
  74   45   47 1
  75   46   47 1
  76   46   73 1
  77   46   74 1
  78   46   75 1
  79   47   76 1
  80   47   77 1
  81   48   49 1
  82   49   78 1
  83   49   79 1
  84   49   80 1

#	End of record

