#	Name: ASD01840162
#	Creating user name:	WinNT
#	Creation time:	15. 06. 2019 19:37

#	Modifying user name:	WinNT
#	Modification time:	15. 06. 2019 19:37

#	Program:	/corina/corina34_cracker 3.40 0067  02.08.2006

@<TRIPOS>MOLECULE
ASD01840162
  47   50    0    0    0
SMALL
NO_CHARGES


@<TRIPOS>ATOM
   1 C1            -1.6170     1.6737    -0.5513 C.3     
   2 C2            -1.3345     0.1667    -0.4129 C.3     
   3 N3            -1.0112    -0.4917    -1.6810 N.am    
   4 C4            -1.2315    -1.8130    -1.8297 C.2     
   5 C5            -0.9089    -2.4702    -3.0954 C.2     
   6 O6            -1.6992    -2.4594    -0.9100 O.2     
   7 C7            -1.0931    -3.7907    -3.3430 C.2     
   8 C8            -0.6952    -4.2031    -4.6763 C.ar    
   9 C9            -0.1979    -3.1366    -5.4372 C.ar    
  10 S10           -0.2401    -1.6533    -4.4945 S.3     
  11 C11           -0.7379    -5.4765    -5.2884 C.ar    
  12 C12           -0.2904    -5.5864    -6.5866 C.ar    
  13 N13            0.1627    -4.5220    -7.2266 N.ar    
  14 N14            0.2081    -3.3604    -6.6892 N.ar    
  15 C15           -0.3168    -6.9244    -7.2794 C.3     
  16 C16           -1.2574    -6.6786    -4.5426 C.3     
  17 N17           -1.6160    -4.6699    -2.4044 N.pl3   
  18 C18           -0.0969     0.5757     0.4063 C.3     
  19 N19           -0.1738     1.8644    -0.3088 N.am    
  20 S20            0.9201     3.0487    -0.6872 S.o     
  21 O21            1.6944     2.4512    -1.7180 O.2     
  22 O22            0.0755     4.0670    -1.4398 O.3     
  23 C23            0.7695     5.1563    -1.8626 C.ar    
  24 C24            0.8816     6.2699    -1.0428 C.ar    
  25 C25            1.3718     5.1544    -3.1123 C.ar    
  26 C26            2.0766     6.2630    -3.5397 C.ar    
  27 C27            2.1824     7.3736    -2.7229 C.ar    
  28 C28            1.5875     7.3759    -1.4748 C.ar    
  29 H29           -1.9377     1.9706    -1.5498 H       
  30 H30           -2.2520     2.0759     0.2381 H       
  31 H31           -2.0874    -0.3697     0.1646 H       
  32 H32           -0.6386     0.0233    -2.4137 H       
  33 H33           -1.2715    -7.0504    -7.7900 H       
  34 H34            0.4935    -6.9730    -8.0068 H       
  35 H35           -0.1915    -7.7177    -6.5424 H       
  36 H36           -2.3442    -6.7118    -4.6190 H       
  37 H37           -0.8348    -7.5853    -4.9756 H       
  38 H38           -0.9688    -6.6082    -3.4939 H       
  39 H39           -1.6100    -4.4348    -1.4634 H       
  40 H40           -1.9874    -5.5194    -2.6897 H       
  41 H41           -0.2854     0.6554     1.4769 H       
  42 H42            0.7960    -0.0040     0.1723 H       
  43 H43            0.4171     6.2722    -0.0678 H       
  44 H44            1.2900     4.2869    -3.7504 H       
  45 H45            2.5456     6.2621    -4.5126 H       
  46 H46            2.7342     8.2392    -3.0588 H       
  47 H47            1.6750     8.2431    -0.8370 H       
@<TRIPOS>BOND
   1    1    2 1
   2    1   19 1
   3    1   29 1
   4    1   30 1
   5    2    3 1
   6    2   18 1
   7    2   31 1
   8    3    4 am
   9    3   32 1
  10    4    5 1
  11    4    6 2
  12    5    7 2
  13    5   10 1
  14    7    8 1
  15    7   17 1
  16    8    9 ar
  17    8   11 ar
  18    9   10 1
  19    9   14 ar
  20   11   12 ar
  21   11   16 1
  22   12   13 ar
  23   12   15 1
  24   13   14 ar
  25   15   33 1
  26   15   34 1
  27   15   35 1
  28   16   36 1
  29   16   37 1
  30   16   38 1
  31   17   39 1
  32   17   40 1
  33   18   19 1
  34   18   41 1
  35   18   42 1
  36   19   20 am
  37   20   21 2
  38   20   22 1
  39   22   23 1
  40   23   25 ar
  41   23   24 ar
  42   24   28 ar
  43   24   43 1
  44   25   26 ar
  45   25   44 1
  46   26   27 ar
  47   26   45 1
  48   27   28 ar
  49   27   46 1
  50   28   47 1

#	End of record

