#	Name: ASD01208450
#	Creating user name:	WinNT
#	Creation time:	15. 06. 2019 19:09

#	Modifying user name:	WinNT
#	Modification time:	15. 06. 2019 19:09

#	Program:	/corina/corina34_cracker 3.40 0067  02.08.2006

@<TRIPOS>MOLECULE
ASD01208450
  34   34    0    0    0
SMALL
NO_CHARGES


@<TRIPOS>ATOM
   1 N1            -0.0167     1.3797     0.0096 N.am    
   2 C2             0.0021    -0.0041     0.0020 C.2     
   3 C3             1.3223    -0.4000    -0.0127 C.2     
   4 C4             2.1040     0.7610    -0.0139 C.2     
   5 C5             1.2705     1.8280    -0.0003 C.2     
   6 C6            -1.1205     2.1530     0.0193 C.2     
   7 O7            -1.6126     2.4956     1.0752 O.2     
   8 O8            -1.6773     2.5453    -1.1411 O.3     
   9 C9            -1.1660    -0.8857     0.0092 C.2     
  10 O10           -1.0169    -2.0929     0.0012 O.2     
  11 O11           -2.4082    -0.3595     0.0246 O.3     
  12 Br12           1.8045     3.6420     0.0038 Br      
  13 C13           -3.5022    -1.2789     0.0308 C.3     
  14 C14           -4.8206    -0.5027     0.0484 C.3     
  15 C15           -2.8645     3.3768    -1.0547 C.3     
  16 C16           -2.5302     4.6665    -0.3024 C.3     
  17 C17           -3.3505     3.7200    -2.4643 C.3     
  18 C18           -3.9638     2.6202    -0.3064 C.3     
  19 H19            1.6858    -1.4169    -0.0211 H       
  20 H20            3.1833     0.7991    -0.0240 H       
  21 H21           -3.4588    -1.9012    -0.8630 H       
  22 H22           -3.4407    -1.9107     0.9168 H       
  23 H23           -4.8639     0.1197     0.9422 H       
  24 H24           -4.8820     0.1292    -0.8377 H       
  25 H25           -5.6550    -1.2039     0.0531 H       
  26 H26           -1.7471     5.2056    -0.8355 H       
  27 H27           -3.4214     5.2907    -0.2376 H       
  28 H28           -2.1840     4.4220     0.7018 H       
  29 H29           -3.5886     2.8013    -3.0003 H       
  30 H30           -4.2417     4.3443    -2.3995 H       
  31 H31           -2.5673     4.2591    -2.9974 H       
  32 H32           -3.6176     2.3757     0.6978 H       
  33 H33           -4.8550     3.2444    -0.2416 H       
  34 H34           -4.2019     1.7014    -0.8424 H       
@<TRIPOS>BOND
   1    1    2 1
   2    1    5 1
   3    1    6 am
   4    2    3 2
   5    2    9 1
   6    3    4 1
   7    3   19 1
   8    4    5 2
   9    4   20 1
  10    5   12 1
  11    6    7 2
  12    6    8 1
  13    8   15 1
  14    9   10 2
  15    9   11 1
  16   11   13 1
  17   13   14 1
  18   13   21 1
  19   13   22 1
  20   14   23 1
  21   14   24 1
  22   14   25 1
  23   15   16 1
  24   15   18 1
  25   15   17 1
  26   16   26 1
  27   16   27 1
  28   16   28 1
  29   17   29 1
  30   17   30 1
  31   17   31 1
  32   18   32 1
  33   18   33 1
  34   18   34 1

#	End of record

