#	Name: ASD01200085
#	Creating user name:	WinNT
#	Creation time:	15. 06. 2019 19:08

#	Modifying user name:	WinNT
#	Modification time:	15. 06. 2019 19:08

#	Program:	/corina/corina34_cracker 3.40 0067  02.08.2006

@<TRIPOS>MOLECULE
ASD01200085
  43   45    0    0    0
SMALL
NO_CHARGES


@<TRIPOS>ATOM
   1 C1             0.4777     1.4883    -1.4644 C.2     
   2 C2             0.3536     0.1669    -0.8139 C.ar    
   3 C3             1.4602    -0.6791    -0.7302 C.ar    
   4 C4             1.3364    -1.9154    -0.1189 C.ar    
   5 C5             0.1138    -2.3107     0.4084 C.ar    
   6 C6            -0.9833    -1.4738     0.3258 C.ar    
   7 C7            -0.8695    -0.2369    -0.2759 C.ar    
   8 O8             1.5451     1.8399    -1.9277 O.2     
   9 N9            -0.5941     2.3012    -1.5488 N.am    
  10 S10            0.9593     4.1655    -2.8464 S.3     
  11 C11           -0.4775     3.5429    -2.1601 C.2     
  12 N12           -1.4425     4.3983    -2.2937 N.2     
  13 C13           -1.1546     5.5333    -2.9028 C.2     
  14 C14            0.1138     5.6422    -3.3029 C.2     
  15 C15           -2.1757     6.6185    -3.1282 C.3     
  16 O16            2.4114    -2.7424    -0.0352 O.3     
  17 C17            3.2275    -2.6211     1.0456 C.ar    
  18 C18            4.4022    -3.3646     1.1198 C.ar    
  19 C19            5.2301    -3.2375     2.2231 C.ar    
  20 C20            4.8889    -2.3738     3.2477 C.ar    
  21 C21            3.7228    -1.6355     3.1742 C.ar    
  22 C22            2.8948    -1.7530     2.0729 C.ar    
  23 O23            4.7358    -4.2142     0.1117 O.3     
  24 C24            5.9555    -4.9446     0.2558 C.3     
  25 C25            6.1606    -5.8410    -0.9670 C.3     
  26 H26            2.4101    -0.3707    -1.1413 H       
  27 H27            0.0199    -3.2756     0.8844 H       
  28 H28           -1.9315    -1.7871     0.7370 H       
  29 H29           -1.7275     0.4164    -0.3344 H       
  30 H30           -1.4468     2.0190    -1.1826 H       
  31 H31            0.5467     6.4881    -3.8162 H       
  32 H32           -2.1728     7.3021    -2.2793 H       
  33 H33           -1.9285     7.1669    -4.0372 H       
  34 H34           -3.1644     6.1713    -3.2312 H       
  35 H35            6.1419    -3.8131     2.2831 H       
  36 H36            5.5350    -2.2761     4.1077 H       
  37 H37            3.4597    -0.9624     3.9767 H       
  38 H38            1.9866    -1.1714     2.0157 H       
  39 H39            6.7890    -4.2472     0.3390 H       
  40 H40            5.9062    -5.5606     1.1537 H       
  41 H41            5.3271    -6.5385    -1.0502 H       
  42 H42            6.2100    -5.2250    -1.8649 H       
  43 H43            7.0910    -6.3982    -0.8571 H       
@<TRIPOS>BOND
   1    1    2 1
   2    1    8 2
   3    1    9 am
   4    2    3 ar
   5    2    7 ar
   6    3    4 ar
   7    3   26 1
   8    4    5 ar
   9    4   16 1
  10    5    6 ar
  11    5   27 1
  12    6    7 ar
  13    6   28 1
  14    7   29 1
  15    9   11 1
  16    9   30 1
  17   10   11 1
  18   10   14 1
  19   11   12 2
  20   12   13 1
  21   13   14 2
  22   13   15 1
  23   14   31 1
  24   15   32 1
  25   15   33 1
  26   15   34 1
  27   16   17 1
  28   17   18 ar
  29   17   22 ar
  30   18   19 ar
  31   18   23 1
  32   19   20 ar
  33   19   35 1
  34   20   21 ar
  35   20   36 1
  36   21   22 ar
  37   21   37 1
  38   22   38 1
  39   23   24 1
  40   24   25 1
  41   24   39 1
  42   24   40 1
  43   25   41 1
  44   25   42 1
  45   25   43 1

#	End of record

