#	Name: ASD01410021
#	Creating user name:	WinNT
#	Creation time:	15. 06. 2019 19:16

#	Modifying user name:	WinNT
#	Modification time:	15. 06. 2019 19:16

#	Program:	/corina/corina34_cracker 3.40 0067  02.08.2006

@<TRIPOS>MOLECULE
ASD01410021
  33   34    0    0    0
SMALL
NO_CHARGES


@<TRIPOS>ATOM
   1 C1            -0.0073     1.4053     0.0862 C.ar    
   2 C2             0.0073     0.0228     0.0731 C.ar    
   3 C3             1.2101    -0.6562     0.0451 C.ar    
   4 C4             2.4039     0.0503     0.0301 C.ar    
   5 C5             2.3866     1.4374     0.0433 C.ar    
   6 C6             1.1812     2.1117     0.0713 C.ar    
   7 O7             3.5884    -0.6154     0.0030 O.3     
   8 C8             4.7776     0.1768    -0.0111 C.3     
   9 C9             5.9831    -0.7271    -0.0407 C.2     
  10 N10            7.2223    -0.1974    -0.0581 N.am    
  11 C11            8.3361    -1.0288     0.0278 C.ar    
  12 C12            8.2900    -2.1789     0.8036 C.ar    
  13 C13            9.3954    -3.0018     0.8874 C.ar    
  14 C14           10.5567    -2.6886     0.2000 C.ar    
  15 C15           10.6214    -1.5510    -0.5753 C.ar    
  16 C16            9.5093    -0.7112    -0.6743 C.ar    
  17 O17            5.8381    -1.9311    -0.0489 O.2     
  18 C18            9.5712     0.5068    -1.5020 C.2     
  19 O19           10.7329     0.8700    -2.0802 O.3     
  20 O20            8.5748     1.1833    -1.6630 O.2     
  21 H21           -0.9487     1.9343     0.1035 H       
  22 H22           -0.9223    -0.5268     0.0852 H       
  23 H23            1.2209    -1.7361     0.0353 H       
  24 H24            3.3146     1.9897     0.0320 H       
  25 H25            1.1672     3.1916     0.0816 H       
  26 H26            4.7793     0.8138    -0.8956 H       
  27 H27            4.8111     0.7979     0.8840 H       
  28 H28            7.3383     0.7629    -0.1305 H       
  29 H29            7.3884    -2.4301     1.3426 H       
  30 H30            9.3547    -3.8951     1.4930 H       
  31 H31           11.4158    -3.3391     0.2723 H       
  32 H32           11.5292    -1.3113    -1.1089 H       
  33 H33           10.7244     1.6764    -2.6139 H       
@<TRIPOS>BOND
   1    1    2 ar
   2    1    6 ar
   3    1   21 1
   4    2    3 ar
   5    2   22 1
   6    3    4 ar
   7    3   23 1
   8    4    5 ar
   9    4    7 1
  10    5    6 ar
  11    5   24 1
  12    6   25 1
  13    7    8 1
  14    8    9 1
  15    8   26 1
  16    8   27 1
  17    9   10 am
  18    9   17 2
  19   10   11 1
  20   10   28 1
  21   11   12 ar
  22   11   16 ar
  23   12   13 ar
  24   12   29 1
  25   13   14 ar
  26   13   30 1
  27   14   15 ar
  28   14   31 1
  29   15   16 ar
  30   15   32 1
  31   16   18 1
  32   18   19 1
  33   18   20 2
  34   19   33 1

#	End of record

