#	Name: ASD02408118
#	Creating user name:	WinNT
#	Creation time:	15. 06. 2019 20:21

#	Modifying user name:	WinNT
#	Modification time:	15. 06. 2019 20:21

#	Program:	/corina/corina34_cracker 3.40 0067  02.08.2006

@<TRIPOS>MOLECULE
ASD02408118
  35   37    0    0    0
SMALL
NO_CHARGES


@<TRIPOS>ATOM
   1 C1            -0.2466     1.7148    -0.0069 C.2     
   2 C2            -0.3511     0.3877     0.0784 C.2     
   3 C3             1.0827     2.4248    -0.0091 C.3     
   4 C4             1.5743     2.5661    -1.4266 C.2     
   5 N5             2.7541     3.1773    -1.6487 N.am    
   6 N6             0.8454     2.0874    -2.3979 N.2     
   7 C7             1.2321     2.1838    -3.6764 C.2     
   8 C8             2.4500     2.8143    -3.9802 C.2     
   9 C9             3.2249     3.3208    -2.9054 C.2     
  10 N10            0.4467     1.6713    -4.6796 N.pl3   
  11 C11           -0.3041     0.4171    -4.5000 C.3     
  12 O12            4.2897     3.8769    -3.1124 O.2     
  13 S13           -2.0482    -0.0732     0.0514 S.3     
  14 C14           -2.5348     1.6120    -0.0779 C.2     
  15 C15           -1.4515     2.3900    -0.0990 C.2     
  16 C16           -1.7952     0.7286    -4.6419 C.3     
  17 N17           -2.0401     1.5597    -5.8126 N.am    
  18 C18           -1.1221     2.3271    -6.4020 C.2     
  19 C19            0.3162     2.3557    -5.9745 C.3     
  20 O20           -1.4662     3.0365    -7.3236 O.2     
  21 C21            2.8987     2.9373    -5.3345 C.1     
  22 N22            3.2546     3.0349    -6.4089 N.1     
  23 H23            0.4794    -0.2987     0.1522 H       
  24 H24            0.9674     3.4132     0.4358 H       
  25 H25            1.8038     1.8476     0.5698 H       
  26 H26            3.2687     3.5171    -0.9000 H       
  27 H27           -0.0047    -0.3030    -5.2616 H       
  28 H28           -0.1063     0.0087    -3.5090 H       
  29 H29           -3.5545     1.9629    -0.1360 H       
  30 H30           -1.5102     3.4658    -0.1741 H       
  31 H31           -2.3487    -0.2050    -4.7425 H       
  32 H32           -2.1383     1.2541    -3.7507 H       
  33 H33           -2.9337     1.5550    -6.1900 H       
  34 H34            0.6481     3.3896    -5.8790 H       
  35 H35            0.9277     1.8412    -6.7157 H       
@<TRIPOS>BOND
   1    1    2 2
   2    1    3 1
   3    1   15 1
   4    2   13 1
   5    2   23 1
   6    3    4 1
   7    3   24 1
   8    3   25 1
   9    4    5 1
  10    4    6 2
  11    5    9 am
  12    5   26 1
  13    6    7 1
  14    7    8 2
  15    7   10 1
  16    8    9 1
  17    8   21 1
  18    9   12 2
  19   10   11 1
  20   10   19 1
  21   11   16 1
  22   11   27 1
  23   11   28 1
  24   13   14 1
  25   14   15 2
  26   14   29 1
  27   15   30 1
  28   16   17 1
  29   16   31 1
  30   16   32 1
  31   17   18 am
  32   17   33 1
  33   18   19 1
  34   18   20 2
  35   19   34 1
  36   19   35 1
  37   21   22 3

#	End of record

