#	Name: ASD00170186
#	Creating user name:	WinNT
#	Creation time:	15. 06. 2019 18:31

#	Modifying user name:	WinNT
#	Modification time:	15. 06. 2019 18:31

#	Program:	/corina/corina34_cracker 3.40 0067  02.08.2006

@<TRIPOS>MOLECULE
ASD00170186
  49   52    0    0    0
SMALL
NO_CHARGES


@<TRIPOS>ATOM
   1 C1            -1.0335     1.5100    -0.9725 C.2     
   2 C2            -1.2781     0.2193    -1.2194 C.2     
   3 C3            -1.3313    -0.5773    -0.0054 C.2     
   4 C4            -1.1203     0.1575     1.1336 C.2     
   5 S5            -0.8668     1.7971     0.7518 S.3     
   6 C6            -0.9225     2.5789    -2.0431 C.3     
   7 C7            -0.7165     1.8984    -3.3990 C.3     
   8 C8            -1.7771     0.8079    -3.5767 C.3     
   9 C9            -1.4770    -0.3456    -2.6169 C.3     
  10 N10           -1.1196    -0.3599     2.4129 N.pl3   
  11 C11           -1.5844    -2.0177     0.0016 C.2     
  12 C12           -2.9690    -2.5249     0.1206 C.ar    
  13 O13           -0.6554    -2.7996    -0.0905 O.2     
  14 C14           -3.2266    -3.8921     0.0090 C.ar    
  15 C15           -4.5200    -4.3585     0.1214 C.ar    
  16 C16           -5.5607    -3.4743     0.3438 C.ar    
  17 C17           -5.3122    -2.1177     0.4550 C.ar    
  18 C18           -4.0226    -1.6389     0.3507 C.ar    
  19 C19           -6.9712    -3.9909     0.4650 C.3     
  20 C20           -7.5331    -3.6219     1.8394 C.3     
  21 C21           -8.9651    -4.1464     1.9625 C.3     
  22 C22           -9.8339    -3.5183     0.8709 C.3     
  23 C23           -9.2720    -3.8873    -0.5035 C.3     
  24 C24           -7.8400    -3.3628    -0.6265 C.3     
  25 H25           -1.8383     3.1696    -2.0660 H       
  26 H26           -0.0729     3.2265    -1.8263 H       
  27 H27           -0.8146     2.6358    -4.1957 H       
  28 H28            0.2766     1.4506    -3.4350 H       
  29 H29           -2.7624     1.2185    -3.3559 H       
  30 H30           -1.7555     0.4425    -4.6034 H       
  31 H31           -0.5702    -0.8597    -2.9357 H       
  32 H32           -2.3134    -1.0446    -2.6129 H       
  33 H33           -1.3500    -1.2906     2.5597 H       
  34 H34           -0.8886     0.2071     3.1653 H       
  35 H35           -2.4152    -4.5832    -0.1653 H       
  36 H36           -4.7208    -5.4162     0.0352 H       
  37 H37           -6.1289    -1.4327     0.6282 H       
  38 H38           -3.8298    -0.5798     0.4377 H       
  39 H39           -6.9721    -5.0750     0.3513 H       
  40 H40           -6.9142    -4.0694     2.6171 H       
  41 H41           -7.5322    -2.5379     1.9532 H       
  42 H42           -8.9660    -5.2305     1.8487 H       
  43 H43           -9.3655    -3.8836     2.9417 H       
  44 H44          -10.8541    -3.8920     0.9586 H       
  45 H45           -9.8330    -2.4343     0.9847 H       
  46 H46           -9.2729    -4.9714    -0.6173 H       
  47 H47           -9.8909    -3.4398    -1.2811 H       
  48 H48           -7.8391    -2.2788    -0.5127 H       
  49 H49           -7.4397    -3.6257    -1.6057 H       
@<TRIPOS>BOND
   1    1    2 2
   2    1    6 1
   3    1    5 1
   4    2    3 1
   5    2    9 1
   6    3    4 2
   7    3   11 1
   8    4    5 1
   9    4   10 1
  10    6    7 1
  11    6   25 1
  12    6   26 1
  13    7    8 1
  14    7   27 1
  15    7   28 1
  16    8    9 1
  17    8   29 1
  18    8   30 1
  19    9   31 1
  20    9   32 1
  21   10   33 1
  22   10   34 1
  23   11   12 1
  24   11   13 2
  25   12   14 ar
  26   12   18 ar
  27   14   15 ar
  28   14   35 1
  29   15   16 ar
  30   15   36 1
  31   16   17 ar
  32   16   19 1
  33   17   18 ar
  34   17   37 1
  35   18   38 1
  36   19   20 1
  37   19   24 1
  38   19   39 1
  39   20   21 1
  40   20   40 1
  41   20   41 1
  42   21   22 1
  43   21   42 1
  44   21   43 1
  45   22   23 1
  46   22   44 1
  47   22   45 1
  48   23   24 1
  49   23   46 1
  50   23   47 1
  51   24   48 1
  52   24   49 1

#	End of record

