#	Name: ASD03240842
#	Creating user name:	WinNT
#	Creation time:	15. 06. 2019 20:35

#	Modifying user name:	WinNT
#	Modification time:	15. 06. 2019 20:35

#	Program:	/corina/corina34_cracker 3.40 0067  02.08.2006

@<TRIPOS>MOLECULE
ASD03240842
  60   66    0    0    0
SMALL
NO_CHARGES


@<TRIPOS>ATOM
   1 C1            -0.0188     1.5336     0.0105 C.3     
   2 C2             0.0021    -0.0041     0.0020 C.3     
   3 C3             1.3815     0.0967    -0.6702 C.3     
   4 C4             1.5179     1.4762    -0.0045 C.3     
   5 O5            -0.5818     2.1049    -1.1721 O.3     
   6 C6             2.3746    -0.9181    -0.1653 C.ar    
   7 C7             2.9342    -1.8300    -1.0424 C.ar    
   8 C8             3.8444    -2.7613    -0.5863 C.ar    
   9 C9             4.2001    -2.7821     0.7623 C.ar    
  10 C10            3.6325    -1.8600     1.6417 C.ar    
  11 C11            2.7274    -0.9303     1.1724 C.ar    
  12 N12            6.0573    -7.1809     0.5803 N.pl3   
  13 C13            6.9507    -8.1175     1.0249 C.2     
  14 N14            7.8351    -7.8514     2.0024 N.2     
  15 C15            7.8934    -6.6820     2.5856 C.2     
  16 C16            6.9700    -5.6311     2.1634 C.ar    
  17 C17            6.9833    -4.3609     2.7497 C.ar    
  18 C18            6.0694    -3.4202     2.2867 C.ar    
  19 C19            5.1760    -3.7792     1.2585 C.ar    
  20 N20            5.1927    -4.9926     0.7277 N.ar    
  21 C21            6.0448    -5.9164     1.1369 C.ar    
  22 C22            6.7228    -9.2702     0.2855 C.2     
  23 C23            5.6861    -9.0061    -0.6007 C.2     
  24 N24            5.2834    -7.7702    -0.4267 N.2     
  25 C25            6.0349    -2.0572     2.8691 C.ar    
  26 C26            5.9862    -1.8883     4.2519 C.ar    
  27 C27            5.9547    -0.6172     4.7884 C.ar    
  28 C28            5.9714     0.4881     3.9567 C.ar    
  29 C29            6.0192     0.3265     2.5837 C.ar    
  30 C30            6.0568    -0.9397     2.0361 C.ar    
  31 C31            5.1135    -9.9825    -1.5956 C.3     
  32 C32           -0.5973     2.1316     1.2944 C.3     
  33 C33           -0.6601     3.6569     1.3975 C.3     
  34 C34           -1.9443     2.8502     1.1946 C.3     
  35 H35            0.0329    -0.4458     0.9980 H       
  36 H36           -0.7629    -0.4476    -0.6353 H       
  37 H37            1.3349     0.1396    -1.7584 H       
  38 H38            1.9766     2.2276    -0.6471 H       
  39 H39            1.9632     1.4391     0.9897 H       
  40 H40           -0.2098     1.7553    -1.9934 H       
  41 H41            2.6577    -1.8131    -2.0863 H       
  42 H42            4.2802    -3.4728    -1.2719 H       
  43 H43            3.9037    -1.8714     2.6871 H       
  44 H44            2.2903    -0.2132     1.8515 H       
  45 H45            8.6138    -6.4959     3.3685 H       
  46 H46            7.6818    -4.1182     3.5369 H       
  47 H47            7.2561   -10.2045     0.3817 H       
  48 H48            5.9728    -2.7505     4.9022 H       
  49 H49            5.9167    -0.4851     5.8596 H       
  50 H50            5.9466     1.4809     4.3810 H       
  51 H51            6.0312     1.1931     1.9392 H       
  52 H52            6.0986    -1.0646     0.9642 H       
  53 H53            4.2949   -10.5342    -1.1334 H       
  54 H54            4.7410    -9.4397    -2.4643 H       
  55 H55            5.8905   -10.6800    -1.9086 H       
  56 H56           -0.3906     1.5736     2.2077 H       
  57 H57           -0.4952     4.1022     2.3786 H       
  58 H58           -0.2894     4.2342     0.5506 H       
  59 H59           -2.4184     2.8970     0.2142 H       
  60 H60           -2.6243     2.7649     2.0423 H       
@<TRIPOS>BOND
   1    1    2 1
   2    1    4 1
   3    1    5 1
   4    1   32 1
   5    2    3 1
   6    2   35 1
   7    2   36 1
   8    3    4 1
   9    3    6 1
  10    3   37 1
  11    4   38 1
  12    4   39 1
  13    5   40 1
  14    6    7 ar
  15    6   11 ar
  16    7    8 ar
  17    7   41 1
  18    8    9 ar
  19    8   42 1
  20    9   10 ar
  21    9   19 1
  22   10   11 ar
  23   10   43 1
  24   11   44 1
  25   12   13 1
  26   12   21 1
  27   12   24 1
  28   13   14 1
  29   13   22 2
  30   14   15 2
  31   15   16 1
  32   15   45 1
  33   16   17 ar
  34   16   21 ar
  35   17   18 ar
  36   17   46 1
  37   18   19 ar
  38   18   25 1
  39   19   20 ar
  40   20   21 ar
  41   22   23 1
  42   22   47 1
  43   23   24 2
  44   23   31 1
  45   25   26 ar
  46   25   30 ar
  47   26   27 ar
  48   26   48 1
  49   27   28 ar
  50   27   49 1
  51   28   29 ar
  52   28   50 1
  53   29   30 ar
  54   29   51 1
  55   30   52 1
  56   31   53 1
  57   31   54 1
  58   31   55 1
  59   32   33 1
  60   32   34 1
  61   32   56 1
  62   33   34 1
  63   33   57 1
  64   33   58 1
  65   34   59 1
  66   34   60 1

#	End of record

