#	Name: ASD00960289
#	Creating user name:	WinNT
#	Creation time:	15. 06. 2019 18:53

#	Modifying user name:	WinNT
#	Modification time:	15. 06. 2019 18:53

#	Program:	/corina/corina34_cracker 3.40 0067  02.08.2006

@<TRIPOS>MOLECULE
ASD00960289
  38   40    0    0    0
SMALL
NO_CHARGES


@<TRIPOS>ATOM
   1 C1            -0.0165     1.3660     0.0096 C.2     
   2 C2             0.0021    -0.0041     0.0020 C.2     
   3 N3             1.2765     1.8140    -0.0004 N.pl3   
   4 C4             2.1113     0.7475    -0.0003 C.2     
   5 C5             1.3602    -0.4011    -0.0065 C.2     
   6 N6             1.7702     3.1279     0.0042 N.2     
   7 C7             3.0346     3.3152    -0.2318 C.2     
   8 N8             3.8818     2.2694    -0.5236 N.pl3   
   9 C9             3.6119     0.9246     0.0175 C.3     
  10 N10            4.1148     0.8257     1.3942 N.3     
  11 C11            1.8703    -1.7831    -0.0196 C.2     
  12 O12            3.0690    -1.9888    -0.0260 O.2     
  13 N13            1.0087    -2.8195    -0.0245 N.am    
  14 C14           -1.2157     2.2075     0.0201 C.2     
  15 O15           -2.3184     1.6946     0.0232 O.2     
  16 O16           -1.0968     3.5511     0.0263 O.3     
  17 C17           -2.3273     4.3217     0.0366 C.3     
  18 C18           -1.9989     5.7925     0.0424 C.ar    
  19 C19           -1.8545     6.4731    -1.1521 C.ar    
  20 C20           -1.5533     7.8222    -1.1468 C.ar    
  21 C21           -1.3968     8.4908     0.0529 C.ar    
  22 C22           -1.5421     7.8104     1.2474 C.ar    
  23 C23           -1.8477     6.4622     1.2421 C.ar    
  24 H24           -0.8577    -0.6576     0.0025 H       
  25 H25            3.4318     4.3190    -0.1986 H       
  26 H26            4.6578     2.4178    -1.0864 H       
  27 H27            4.0842     0.1681    -0.6092 H       
  28 H28            5.1099     0.9889     1.4282 H       
  29 H29            3.6232     1.4605     2.0052 H       
  30 H30            0.0527    -2.6554    -0.0194 H       
  31 H31            1.3446    -3.7294    -0.0331 H       
  32 H32           -2.9126     4.0836    -0.8516 H       
  33 H33           -2.9034     4.0746     0.9283 H       
  34 H34           -1.9768     5.9508    -2.0895 H       
  35 H35           -1.4398     8.3538    -2.0801 H       
  36 H36           -1.1607     9.5447     0.0571 H       
  37 H37           -1.4195     8.3326     2.1848 H       
  38 H38           -1.9649     5.9314     2.1754 H       
@<TRIPOS>BOND
   1    1    2 2
   2    1    3 1
   3    1   14 1
   4    2    5 1
   5    2   24 1
   6    3    4 1
   7    3    6 1
   8    4    5 2
   9    4    9 1
  10    5   11 1
  11    6    7 2
  12    7    8 1
  13    7   25 1
  14    8    9 1
  15    8   26 1
  16    9   10 1
  17    9   27 1
  18   10   28 1
  19   10   29 1
  20   11   12 2
  21   11   13 am
  22   13   30 1
  23   13   31 1
  24   14   15 2
  25   14   16 1
  26   16   17 1
  27   17   18 1
  28   17   32 1
  29   17   33 1
  30   18   19 ar
  31   18   23 ar
  32   19   20 ar
  33   19   34 1
  34   20   21 ar
  35   20   35 1
  36   21   22 ar
  37   21   36 1
  38   22   23 ar
  39   22   37 1
  40   23   38 1

#	End of record

