#	Name: ASD08150646
#	Creating user name:	WinNT
#	Creation time:	15. 06. 2019 21:16

#	Modifying user name:	WinNT
#	Modification time:	15. 06. 2019 21:16

#	Program:	/corina/corina34_cracker 3.40 0067  02.08.2006

@<TRIPOS>MOLECULE
ASD08150646
  63   68    0    0    0
SMALL
NO_CHARGES


@<TRIPOS>ATOM
   1 N1             0.6609     2.9076    -1.5346 N.am    
   2 C2             0.8819     2.0590    -2.5573 C.2     
   3 C3             2.1069     1.3715    -2.6755 C.2     
   4 C4             3.0861     1.5571    -1.7540 C.2     
   5 C5             2.8571     2.4492    -0.6766 C.ar    
   6 C6             3.8392     2.6777     0.3062 C.ar    
   7 N7             3.6251     3.5009     1.2992 N.ar    
   8 C8             2.4709     4.1702     1.4404 C.ar    
   9 C9             1.4268     4.0019     0.4978 C.ar    
  10 C10            1.6265     3.1178    -0.5883 C.ar    
  11 C11            0.2273     4.7033     0.6546 C.ar    
  12 C12            0.0730     5.5581     1.7338 C.ar    
  13 C13            1.1107     5.7195     2.6624 C.ar    
  14 C14            2.2832     5.0447     2.5233 C.ar    
  15 O15            0.0105     1.8829    -3.3917 O.2     
  16 C16           -1.1960     6.3064     1.9073 C.ar    
  17 C17           -0.5618     3.5828    -1.4428 C.ar    
  18 C18           -0.6499     4.9170    -1.8182 C.ar    
  19 C19           -1.8579     5.5801    -1.7268 C.ar    
  20 C20           -2.9788     4.9172    -1.2616 C.ar    
  21 C21           -2.8944     3.5888    -0.8870 C.ar    
  22 C22           -1.6907     2.9183    -0.9814 C.ar    
  23 C23           -1.2123     7.5266     2.5914 C.ar    
  24 C24           -2.4184     8.1873     2.7272 C.ar    
  25 C25           -3.5665     7.6228     2.1845 C.ar    
  26 N26           -3.5174     6.4664     1.5433 N.ar    
  27 C27           -2.3871     5.8072     1.3867 C.ar    
  28 N28           -5.2512     5.6579    -2.6262 N.am    
  29 C29           -6.2330     4.5991    -2.9059 C.3     
  30 C30           -4.9427     6.6207    -3.6944 C.3     
  31 C31           -6.2599     7.1896    -4.2324 C.3     
  32 N32           -7.1417     6.0836    -4.6287 N.3     
  33 C33           -7.4995     5.2476    -3.4750 C.3     
  34 S34           -4.5178     5.7673    -1.1455 S.o2    
  35 O35           -5.3220     5.0199    -0.2432 O.2     
  36 O36           -4.2046     7.1399    -0.9533 O.2     
  37 O37           -4.7539     8.2660     2.3142 O.3     
  38 C38           -5.9161     7.5848     1.8376 C.3     
  39 H39            2.2667     0.6946    -3.5018 H       
  40 H40            4.0260     1.0323    -1.8403 H       
  41 H41            4.7864     2.1634     0.2387 H       
  42 H42           -0.5726     4.5799    -0.0605 H       
  43 H43            0.9775     6.3893     3.4991 H       
  44 H44            3.0720     5.1808     3.2483 H       
  45 H45            0.2253     5.4354    -2.1810 H       
  46 H46           -1.9271     6.6176    -2.0187 H       
  47 H47           -3.7716     3.0740    -0.5237 H       
  48 H48           -1.6263     1.8796    -0.6924 H       
  49 H49           -0.3045     7.9420     3.0035 H       
  50 H50           -2.4682     9.1313     3.2495 H       
  51 H51           -2.3862     4.8658     0.8573 H       
  52 H52           -5.8207     3.9005    -3.6339 H       
  53 H53           -6.4748     4.0710    -1.9836 H       
  54 H54           -4.3314     7.4291    -3.2933 H       
  55 H55           -4.4063     6.1164    -4.4981 H       
  56 H56           -6.7449     7.7810    -3.4557 H       
  57 H57           -6.0571     7.8210    -5.0974 H       
  58 H58           -7.9672     6.4286    -5.0951 H       
  59 H59           -8.1956     4.4706    -3.7907 H       
  60 H60           -7.9672     5.8660    -2.7088 H       
  61 H61           -5.9847     6.6066     2.3136 H       
  62 H62           -6.8041     8.1691     2.0786 H       
  63 H63           -5.8461     7.4590     0.7572 H       
@<TRIPOS>BOND
   1    1    2 am
   2    1   10 1
   3    1   17 1
   4    2    3 1
   5    2   15 2
   6    3    4 2
   7    3   39 1
   8    4    5 1
   9    4   40 1
  10    5    6 ar
  11    5   10 ar
  12    6    7 ar
  13    6   41 1
  14    7    8 ar
  15    8    9 ar
  16    8   14 ar
  17    9   10 ar
  18    9   11 ar
  19   11   12 ar
  20   11   42 1
  21   12   13 ar
  22   12   16 1
  23   13   14 ar
  24   13   43 1
  25   14   44 1
  26   16   23 ar
  27   16   27 ar
  28   17   18 ar
  29   17   22 ar
  30   18   19 ar
  31   18   45 1
  32   19   20 ar
  33   19   46 1
  34   20   21 ar
  35   20   34 1
  36   21   22 ar
  37   21   47 1
  38   22   48 1
  39   23   24 ar
  40   23   49 1
  41   24   25 ar
  42   24   50 1
  43   25   26 ar
  44   25   37 1
  45   26   27 ar
  46   27   51 1
  47   28   29 1
  48   28   30 1
  49   28   34 am
  50   29   33 1
  51   29   52 1
  52   29   53 1
  53   30   31 1
  54   30   54 1
  55   30   55 1
  56   31   32 1
  57   31   56 1
  58   31   57 1
  59   32   33 1
  60   32   58 1
  61   33   59 1
  62   33   60 1
  63   34   35 2
  64   34   36 2
  65   37   38 1
  66   38   61 1
  67   38   62 1
  68   38   63 1

#	End of record

