#	Name: ASD01882129
#	Creating user name:	WinNT
#	Creation time:	15. 06. 2019 19:44

#	Modifying user name:	WinNT
#	Modification time:	15. 06. 2019 19:44

#	Program:	/corina/corina34_cracker 3.40 0067  02.08.2006

@<TRIPOS>MOLECULE
ASD01882129
  49   52    0    0    0
SMALL
NO_CHARGES


@<TRIPOS>ATOM
   1 C1             1.2595     1.6054    -1.1833 C.2     
   2 N2             1.5329     0.3310    -1.4284 N.2     
   3 C3             2.7904    -0.0938    -1.5899 C.2     
   4 C4             3.8601     0.8323    -1.4987 C.2     
   5 C5             3.5693     2.1262    -1.2489 C.2     
   6 N6             2.2660     2.5065    -1.0921 N.pl3   
   7 O7             0.0429     2.1654    -1.0062 O.3     
   8 C8             1.6995     3.8378    -0.8168 C.3     
   9 C9             0.1820     3.5907    -0.7602 C.3     
  10 O10            3.0163    -1.2730    -1.8144 O.2     
  11 C11           -0.5285     4.3941    -1.8514 C.3     
  12 O12           -1.9375     4.1725    -1.7649 O.3     
  13 C13           -2.7202     4.8176    -2.6695 C.ar    
  14 C14           -4.0968     4.6481    -2.6433 C.ar    
  15 C15           -4.8902     5.3049    -3.5639 C.ar    
  16 C16           -4.3133     6.1308    -4.5109 C.ar    
  17 C17           -2.9414     6.3011    -4.5395 C.ar    
  18 C18           -2.1442     5.6513    -3.6171 C.ar    
  19 C19           -5.1811     6.8461    -5.5140 C.3     
  20 C20           -4.2960     7.6063    -6.5038 C.3     
  21 C21           -6.0200     5.8407    -6.2599 C.ar    
  22 C22           -7.3957     5.9739    -6.2887 C.ar    
  23 C23           -8.1652     5.0516    -6.9728 C.ar    
  24 C24           -7.5592     3.9963    -7.6285 C.ar    
  25 C25           -6.1835     3.8636    -7.6004 C.ar    
  26 C26           -5.4136     4.7883    -6.9199 C.ar    
  27 C27           -6.0955     7.8330    -4.7854 C.3     
  28 H28            4.8830     0.5099    -1.6256 H       
  29 H29            4.3615     2.8564    -1.1730 H       
  30 H30            2.0627     4.2179     0.1380 H       
  31 H31            1.9422     4.5307    -1.6225 H       
  32 H32           -0.2127     3.8484     0.2226 H       
  33 H33           -0.3185     5.4551    -1.7163 H       
  34 H34           -0.1697     4.0744    -2.8297 H       
  35 H35           -4.5479     4.0028    -1.9039 H       
  36 H36           -5.9619     5.1730    -3.5441 H       
  37 H37           -2.4931     6.9461    -5.2806 H       
  38 H38           -1.0732     5.7884    -3.6368 H       
  39 H39           -3.6446     6.9032    -7.0229 H       
  40 H40           -4.9237     8.1237    -7.2294 H       
  41 H41           -3.6892     8.3335    -5.9644 H       
  42 H42           -7.8692     6.7984    -5.7764 H       
  43 H43           -9.2400     5.1553    -6.9947 H       
  44 H44           -8.1604     3.2754    -8.1624 H       
  45 H45           -5.7100     3.0389    -8.1124 H       
  46 H46           -4.3386     4.6867    -6.9011 H       
  47 H47           -5.4887     8.5602    -4.2459 H       
  48 H48           -6.7232     8.3504    -5.5109 H       
  49 H49           -6.7260     7.2914    -4.0802 H       
@<TRIPOS>BOND
   1    1    2 2
   2    1    6 1
   3    1    7 1
   4    2    3 1
   5    3    4 1
   6    3   10 2
   7    4    5 2
   8    4   28 1
   9    5    6 1
  10    5   29 1
  11    6    8 1
  12    7    9 1
  13    8    9 1
  14    8   30 1
  15    8   31 1
  16    9   11 1
  17    9   32 1
  18   11   12 1
  19   11   33 1
  20   11   34 1
  21   12   13 1
  22   13   14 ar
  23   13   18 ar
  24   14   15 ar
  25   14   35 1
  26   15   16 ar
  27   15   36 1
  28   16   17 ar
  29   16   19 1
  30   17   18 ar
  31   17   37 1
  32   18   38 1
  33   19   20 1
  34   19   21 1
  35   19   27 1
  36   20   39 1
  37   20   40 1
  38   20   41 1
  39   21   22 ar
  40   21   26 ar
  41   22   23 ar
  42   22   42 1
  43   23   24 ar
  44   23   43 1
  45   24   25 ar
  46   24   44 1
  47   25   26 ar
  48   25   45 1
  49   26   46 1
  50   27   47 1
  51   27   48 1
  52   27   49 1

#	End of record

