#	Name: ASD01910337
#	Creating user name:	WinNT
#	Creation time:	15. 06. 2019 19:55

#	Modifying user name:	WinNT
#	Modification time:	15. 06. 2019 19:55

#	Program:	/corina/corina34_cracker 3.40 0067  02.08.2006

@<TRIPOS>MOLECULE
ASD01910337
  45   47    0    0    0
SMALL
NO_CHARGES


@<TRIPOS>ATOM
   1 C1             0.0450     1.4274     0.0986 C.ar    
   2 C2             0.0537    -0.0043     0.0754 C.1     
   3 C3             0.0608    -1.1782     0.0563 C.1     
   4 C4             0.0695    -2.6100     0.0331 C.ar    
   5 C5            -1.1298    -3.3149    -0.1198 C.ar    
   6 C6            -1.1208    -4.6803    -0.1418 C.ar    
   7 C7             0.0861    -5.3740    -0.0111 C.ar    
   8 C8             1.2846    -4.6703     0.1416 C.ar    
   9 C9             1.2778    -3.3048     0.1576 C.ar    
  10 C10            0.0949    -6.8499    -0.0340 C.2     
  11 O11           -0.7627    -7.4723     0.5621 O.2     
  12 N12            1.0537    -7.5075    -0.7158 N.am    
  13 C13            1.1527    -8.9717    -0.6439 C.3     
  14 C14            1.1461    -9.5368    -2.0678 C.3     
  15 C15            2.2579    -8.8708    -2.8818 C.3     
  16 C16            2.0031    -7.3637    -2.9591 C.3     
  17 C17            2.0159    -6.7745    -1.5497 C.3     
  18 O18            3.5178    -9.1088    -2.2509 O.3     
  19 C19            2.2767    -9.4576    -4.2947 C.3     
  20 C20            1.2413     2.1338     0.2512 C.ar    
  21 C21            1.2277     3.5126     0.2724 C.ar    
  22 C22            0.0312     4.1991     0.1434 C.ar    
  23 C23           -1.1614     3.5041    -0.0081 C.ar    
  24 C24           -1.1594     2.1242    -0.0371 C.ar    
  25 F25            0.0247     5.5499     0.1655 F       
  26 F26           -2.3247     4.1798    -0.1325 F       
  27 H27           -2.0622    -2.7792    -0.2200 H       
  28 H28           -2.0462    -5.2244    -0.2598 H       
  29 H29            2.2165    -5.2068     0.2429 H       
  30 H30            2.2037    -2.7614     0.2756 H       
  31 H31            2.0802    -9.2511    -0.1442 H       
  32 H32            0.3025    -9.3687    -0.0893 H       
  33 H33            1.3156   -10.6130    -2.0329 H       
  34 H34            0.1823    -9.3347    -2.5350 H       
  35 H35            2.7824    -6.8932    -3.5585 H       
  36 H36            1.0311    -7.1821    -3.4178 H       
  37 H37            1.7373    -5.7215    -1.5914 H       
  38 H38            3.0131    -6.8741    -1.1211 H       
  39 H39            4.2700    -8.7146    -2.7134 H       
  40 H40            1.3156    -9.2768    -4.7760 H       
  41 H41            3.0684    -8.9834    -4.8746 H       
  42 H42            2.4594   -10.5308    -4.2399 H       
  43 H43            2.1750     1.6006     0.3526 H       
  44 H44            2.1520     4.0587     0.3903 H       
  45 H45           -2.0870     1.5838    -0.1552 H       
@<TRIPOS>BOND
   1    1    2 1
   2    1   20 ar
   3    1   24 ar
   4    2    3 3
   5    3    4 1
   6    4    5 ar
   7    4    9 ar
   8    5    6 ar
   9    5   27 1
  10    6    7 ar
  11    6   28 1
  12    7    8 ar
  13    7   10 1
  14    8    9 ar
  15    8   29 1
  16    9   30 1
  17   10   11 2
  18   10   12 am
  19   12   13 1
  20   12   17 1
  21   13   14 1
  22   13   31 1
  23   13   32 1
  24   14   15 1
  25   14   33 1
  26   14   34 1
  27   15   16 1
  28   15   18 1
  29   15   19 1
  30   16   17 1
  31   16   35 1
  32   16   36 1
  33   17   37 1
  34   17   38 1
  35   18   39 1
  36   19   40 1
  37   19   41 1
  38   19   42 1
  39   20   21 ar
  40   20   43 1
  41   21   22 ar
  42   21   44 1
  43   22   23 ar
  44   22   25 1
  45   23   24 ar
  46   23   26 1
  47   24   45 1

#	End of record

