#	Name: ASD05313223
#	Creating user name:	WinNT
#	Creation time:	15. 06. 2019 20:58

#	Modifying user name:	WinNT
#	Modification time:	15. 06. 2019 20:58

#	Program:	/corina/corina34_cracker 3.40 0067  02.08.2006

@<TRIPOS>MOLECULE
ASD05313223
  43   46    0    0    0
SMALL
NO_CHARGES


@<TRIPOS>ATOM
   1 C1            -0.0741     0.8183     1.0259 C.2     
   2 C2             0.1129    -0.6201     0.5970 C.3     
   3 N3             0.9282     1.7304     1.0524 N.pl3   
   4 N4             1.4552    -0.7210    -0.0046 N.am    
   5 C5             2.5694    -0.0408     0.6731 C.3     
   6 C6             2.3162     1.4708     0.6630 C.3     
   7 N7            -1.1729     1.3843     1.4251 N.2     
   8 C8            -0.9210     2.6765     1.7249 C.2     
   9 C9             0.4000     2.9053     1.4961 C.2     
  10 C10           -1.9078     3.6683     2.2187 C.ar    
  11 C11           -3.2364     3.2956     2.4134 C.ar    
  12 C12           -4.1501     4.2223     2.8728 C.ar    
  13 C13           -3.7493     5.5191     3.1395 C.ar    
  14 C14           -2.4318     5.8945     2.9481 C.ar    
  15 C15           -1.5083     4.9744     2.4950 C.ar    
  16 C16            1.6554    -1.4164    -1.1416 C.2     
  17 O17            2.7473    -1.4066    -1.6757 O.2     
  18 C18            0.5476    -2.1907    -1.7390 C.ar    
  19 C19            0.3171    -2.1380    -3.1161 C.ar    
  20 C20           -0.7204    -2.8644    -3.6670 C.ar    
  21 C21           -1.5297    -3.6418    -2.8585 C.ar    
  22 C22           -1.3066    -3.6976    -1.4939 C.ar    
  23 C23           -0.2700    -2.9825    -0.9309 C.ar    
  24 C24           -0.9714    -2.8096    -5.1520 C.3     
  25 F25           -2.0658    -3.6208    -5.4702 F       
  26 F26           -1.2430    -1.4905    -5.5306 F       
  27 F27            0.1616    -3.2666    -5.8336 F       
  28 Cl28           1.3315    -1.1617    -4.1317 Cl      
  29 H29            0.0432    -1.2783     1.4630 H       
  30 H30           -0.6451    -0.8903    -0.1383 H       
  31 H31            2.6384    -0.3918     1.7027 H       
  32 H32            3.5008    -0.2577     0.1501 H       
  33 H33            2.4927     1.8628    -0.3386 H       
  34 H34            2.9894     1.9572     1.3689 H       
  35 H35            0.9280     3.8363     1.6404 H       
  36 H36           -3.5506     2.2836     2.2047 H       
  37 H37           -5.1801     3.9346     3.0240 H       
  38 H38           -4.4678     6.2412     3.4982 H       
  39 H39           -2.1243     6.9083     3.1580 H       
  40 H40           -0.4789     5.2673     2.3504 H       
  41 H41           -2.3398    -4.2077    -3.2942 H       
  42 H42           -1.9430    -4.3062    -0.8687 H       
  43 H43           -0.0943    -3.0315     0.1336 H       
@<TRIPOS>BOND
   1    1    2 1
   2    1    3 1
   3    1    7 2
   4    2    4 1
   5    2   29 1
   6    2   30 1
   7    3    6 1
   8    3    9 1
   9    4    5 1
  10    4   16 am
  11    5    6 1
  12    5   31 1
  13    5   32 1
  14    6   33 1
  15    6   34 1
  16    7    8 1
  17    8    9 2
  18    8   10 1
  19    9   35 1
  20   10   11 ar
  21   10   15 ar
  22   11   12 ar
  23   11   36 1
  24   12   13 ar
  25   12   37 1
  26   13   14 ar
  27   13   38 1
  28   14   15 ar
  29   14   39 1
  30   15   40 1
  31   16   17 2
  32   16   18 1
  33   18   19 ar
  34   18   23 ar
  35   19   20 ar
  36   19   28 1
  37   20   21 ar
  38   20   24 1
  39   21   22 ar
  40   21   41 1
  41   22   23 ar
  42   22   42 1
  43   23   43 1
  44   24   25 1
  45   24   26 1
  46   24   27 1

#	End of record

