#	Name: ASD01911856
#	Creating user name:	WinNT
#	Creation time:	15. 06. 2019 19:58

#	Modifying user name:	WinNT
#	Modification time:	15. 06. 2019 19:58

#	Program:	/corina/corina34_cracker 3.40 0067  02.08.2006

@<TRIPOS>MOLECULE
ASD01911856
  39   41    0    0    0
SMALL
NO_CHARGES


@<TRIPOS>ATOM
   1 C1            -1.0578    -0.4836    -2.0446 C.ar    
   2 C2            -1.0628     0.0680    -0.7670 C.ar    
   3 C3            -1.0159     1.4476    -0.6287 C.ar    
   4 N4            -0.9677     2.2287    -1.6895 N.ar    
   5 C5            -0.9615     1.7383    -2.9134 C.ar    
   6 C6            -1.0059     0.3737    -3.1315 C.ar    
   7 O7            -1.1134    -0.7333     0.3295 O.3     
   8 C8            -1.1590    -2.0775     0.1357 C.ar    
   9 C9            -0.0047    -2.7696    -0.2030 C.ar    
  10 C10           -0.0500    -4.1385    -0.4011 C.ar    
  11 C11           -1.2462    -4.8203    -0.2614 C.ar    
  12 C12           -2.4032    -4.1311     0.0774 C.ar    
  13 C13           -2.3574    -2.7587     0.2819 C.ar    
  14 N14           -3.6122    -4.8196     0.2182 N.am    
  15 C15           -3.6163    -6.0874     0.6755 C.2     
  16 C16           -4.8810    -6.8509     0.7257 C.ar    
  17 O17           -2.5799    -6.6030     1.0468 O.2     
  18 C18           -6.0727    -6.2619     0.3002 C.ar    
  19 C19           -7.2497    -6.9801     0.3498 C.ar    
  20 C20           -7.2505    -8.2810     0.8203 C.ar    
  21 C21           -6.0725    -8.8710     1.2437 C.ar    
  22 C22           -4.8878    -8.1662     1.1936 C.ar    
  23 C23           -6.0830   -10.2885     1.7552 C.3     
  24 F24            1.0747    -4.8100    -0.7317 F       
  25 H25           -1.0892    -1.5539    -2.1853 H       
  26 H26           -1.0193     1.8861     0.3583 H       
  27 H27           -0.9217     2.4115    -3.7569 H       
  28 H28           -1.0005    -0.0192    -4.1375 H       
  29 H29            0.9298    -2.2393    -0.3125 H       
  30 H30           -1.2799    -5.8886    -0.4164 H       
  31 H31           -3.2563    -2.2211     0.5455 H       
  32 H32           -4.4478    -4.3849    -0.0134 H       
  33 H33           -6.0735    -5.2461    -0.0666 H       
  34 H34           -8.1725    -6.5255     0.0209 H       
  35 H35           -8.1747    -8.8386     0.8577 H       
  36 H36           -3.9691    -8.6278     1.5243 H       
  37 H37           -5.9159   -10.9753     0.9255 H       
  38 H38           -5.2927   -10.4136     2.4953 H       
  39 H39           -7.0482   -10.5018     2.2147 H       
@<TRIPOS>BOND
   1    1    2 ar
   2    1    6 ar
   3    1   25 1
   4    2    3 ar
   5    2    7 1
   6    3    4 ar
   7    3   26 1
   8    4    5 ar
   9    5    6 ar
  10    5   27 1
  11    6   28 1
  12    7    8 1
  13    8    9 ar
  14    8   13 ar
  15    9   10 ar
  16    9   29 1
  17   10   11 ar
  18   10   24 1
  19   11   12 ar
  20   11   30 1
  21   12   13 ar
  22   12   14 1
  23   13   31 1
  24   14   15 am
  25   14   32 1
  26   15   16 1
  27   15   17 2
  28   16   18 ar
  29   16   22 ar
  30   18   19 ar
  31   18   33 1
  32   19   20 ar
  33   19   34 1
  34   20   21 ar
  35   20   35 1
  36   21   22 ar
  37   21   23 1
  38   22   36 1
  39   23   37 1
  40   23   38 1
  41   23   39 1

#	End of record

