#	Name: ASD02198551
#	Creating user name:	WinNT
#	Creation time:	15. 06. 2019 20:19

#	Modifying user name:	WinNT
#	Modification time:	15. 06. 2019 20:19

#	Program:	/corina/corina34_cracker 3.40 0067  02.08.2006

@<TRIPOS>MOLECULE
ASD02198551
  47   51    0    0    0
SMALL
NO_CHARGES


@<TRIPOS>ATOM
   1 C1             0.0072     1.5093     0.1337 C.2     
   2 C2             0.0744     0.1695    -0.0945 C.2     
   3 N3            -1.0526    -0.5609    -0.2644 N.pl3   
   4 N4            -2.2306    -0.0574    -0.2232 N.2     
   5 C5            -2.4381     1.2252    -0.0098 C.2     
   6 C6            -1.2794     2.1063     0.1924 C.2     
   7 C7            -0.9254    -1.9313    -0.4965 C.ar    
   8 C8            -1.3737    -3.9110    -1.8464 C.ar    
   9 C9            -0.6467    -4.6829    -0.9255 C.ar    
  10 C10           -0.0901    -4.0908     0.1675 C.ar    
  11 C11           -0.2244    -2.7232     0.3873 C.ar    
  12 C12           -3.8113     1.7681     0.0301 C.2     
  13 N13           -4.3734     2.4804     1.0519 N.pl3   
  14 N14           -5.6850     2.7993     0.6786 N.2     
  15 C15           -5.9152     2.3071    -0.5125 C.2     
  16 C16           -4.7645     1.6567    -0.9583 C.2     
  17 C17           -3.7498     2.8286     2.2568 C.ar    
  18 C18           -2.9568     1.9033     2.9226 C.ar    
  19 O19           -1.4173     3.3042     0.3940 O.2     
  20 C20           -3.9187     4.1017     2.7851 C.ar    
  21 C21           -3.3025     4.4420     3.9734 C.ar    
  22 C22           -2.5176     3.5166     4.6367 C.ar    
  23 C23           -2.3433     2.2497     4.1105 C.ar    
  24 C24           -1.5190    -2.5183    -1.6360 C.ar    
  25 O25            1.1345     2.2504     0.3054 O.3     
  26 C26            2.3828     1.5585     0.2349 C.3     
  27 N27           -2.2100    -1.7816    -2.5094 N.ar    
  28 C28           -2.7636    -2.3206    -3.5687 C.ar    
  29 C29           -2.6595    -3.6839    -3.8359 C.ar    
  30 C30           -1.9664    -4.4944    -2.9826 C.ar    
  31 H31            1.0377    -0.3165    -0.1411 H       
  32 H32           -0.5330    -5.7456    -1.0814 H       
  33 H33            0.4676    -4.6906     0.8715 H       
  34 H34            0.2265    -2.2768     1.2612 H       
  35 H35           -6.8416     2.3934    -1.0608 H       
  36 H36           -4.6445     1.1513    -1.9052 H       
  37 H37           -2.8202     0.9137     2.5122 H       
  38 H38           -4.5309     4.8251     2.2671 H       
  39 H39           -3.4334     5.4319     4.3848 H       
  40 H40           -2.0365     3.7852     5.5655 H       
  41 H41           -1.7297     1.5292     4.6309 H       
  42 H42            3.1988     2.2647     0.3884 H       
  43 H43            2.4167     0.7905     1.0077 H       
  44 H44            2.4851     1.0926    -0.7452 H       
  45 H45           -3.3150    -1.6914    -4.2518 H       
  46 H46           -3.1266    -4.0994    -4.7166 H       
  47 H47           -1.8754    -5.5534    -3.1740 H       
@<TRIPOS>BOND
   1    1    2 2
   2    1   25 1
   3    1    6 1
   4    2    3 1
   5    2   31 1
   6    3    4 1
   7    3    7 1
   8    4    5 2
   9    5    6 1
  10    5   12 1
  11    6   19 2
  12    7   24 ar
  13    7   11 ar
  14    8    9 ar
  15    8   24 ar
  16    8   30 ar
  17    9   10 ar
  18    9   32 1
  19   10   11 ar
  20   10   33 1
  21   11   34 1
  22   12   13 1
  23   12   16 2
  24   13   14 1
  25   13   17 1
  26   14   15 2
  27   15   16 1
  28   15   35 1
  29   16   36 1
  30   17   20 ar
  31   17   18 ar
  32   18   23 ar
  33   18   37 1
  34   20   21 ar
  35   20   38 1
  36   21   22 ar
  37   21   39 1
  38   22   23 ar
  39   22   40 1
  40   23   41 1
  41   24   27 ar
  42   25   26 1
  43   26   42 1
  44   26   43 1
  45   26   44 1
  46   27   28 ar
  47   28   29 ar
  48   28   45 1
  49   29   30 ar
  50   29   46 1
  51   30   47 1

#	End of record

