#	Name: ASD05430696
#	Creating user name:	WinNT
#	Creation time:	15. 06. 2019 21:00

#	Modifying user name:	WinNT
#	Modification time:	15. 06. 2019 21:00

#	Program:	/corina/corina34_cracker 3.40 0067  02.08.2006

@<TRIPOS>MOLECULE
ASD05430696
  30   30    0    0    0
SMALL
NO_CHARGES


@<TRIPOS>ATOM
   1 C1            -0.0167     1.3782     0.0096 C.ar    
   2 C2             0.0021    -0.0041     0.0020 C.ar    
   3 C3            -1.1846    -0.7141     0.0095 C.ar    
   4 C4            -2.4133     1.3439     0.0439 C.ar    
   5 C5            -1.2217     2.0538     0.0305 C.ar    
   6 C6             1.2784     2.1488     0.0014 C.3     
   7 C7            -2.3919    -0.0433     0.0247 C.ar    
   8 C8             2.4542     1.1699    -0.0151 C.3     
   9 C9             1.3360     3.0361    -1.2437 C.3     
  10 C10            1.3599     3.0227     1.2546 C.3     
  11 O11           -3.5999     2.0062     0.0649 O.3     
  12 S12           -4.2115     2.3437    -1.4410 Du      
  13 F13           -4.8047     2.6710    -2.9015 F       
  14 F14           -2.7554     2.8336    -1.9226 F       
  15 F15           -3.8650     0.8453    -1.9175 F       
  16 F16           -4.5580     3.8420    -0.9644 F       
  17 F17           -5.6676     1.8537    -0.9594 F       
  18 H18            0.9451    -0.5304    -0.0102 H       
  19 H19           -1.1673    -1.7939     0.0032 H       
  20 H20           -1.2357     3.1336     0.0454 H       
  21 H21           -3.3184    -0.5983     0.0347 H       
  22 H22            2.3961     0.5473    -0.9079 H       
  23 H23            3.3909     1.7272    -0.0210 H       
  24 H24            2.4131     0.5378     0.8719 H       
  25 H25            0.4984     3.7334    -1.2320 H       
  26 H26            2.2727     3.5934    -1.2497 H       
  27 H27            1.2780     2.4135    -2.1365 H       
  28 H28            1.3188     2.3905     2.1417 H       
  29 H29            2.2966     3.5800     1.2487 H       
  30 H30            0.5222     3.7200     1.2664 H       
@<TRIPOS>BOND
   1    1    2 ar
   2    1    6 1
   3    1    5 ar
   4    2    3 ar
   5    2   18 1
   6    3    7 ar
   7    3   19 1
   8    4    5 ar
   9    4   11 1
  10    4    7 ar
  11    5   20 1
  12    6    8 1
  13    6    9 1
  14    6   10 1
  15    7   21 1
  16    8   22 1
  17    8   23 1
  18    8   24 1
  19    9   25 1
  20    9   26 1
  21    9   27 1
  22   10   28 1
  23   10   29 1
  24   10   30 1
  25   11   12 1
  26   12   13 1
  27   12   14 1
  28   12   15 1
  29   12   16 1
  30   12   17 1

#	End of record

