#	Name: ASD03330948
#	Creating user name:	WinNT
#	Creation time:	15. 06. 2019 20:38

#	Modifying user name:	WinNT
#	Modification time:	15. 06. 2019 20:38

#	Program:	/corina/corina34_cracker 3.40 0067  02.08.2006

@<TRIPOS>MOLECULE
ASD03330948
  75   78    0    0    0
SMALL
NO_CHARGES


@<TRIPOS>ATOM
   1 N1            -0.9013     1.7705    -0.4014 N.pl3   
   2 C2            -0.7252     0.4546    -0.1080 C.2     
   3 C3             0.5824    -0.1943     0.2639 C.3     
   4 N4             1.2541     0.6250     1.2848 N.3     
   5 C5             2.1045     1.6460     0.6701 C.3     
   6 C6             1.4998     2.1438    -0.6396 C.3     
   7 C7             0.1427     2.7987    -0.3683 C.3     
   8 C8            -2.2175     1.9466    -0.7151 C.2     
   9 N9            -2.8329     0.7928    -0.6029 N.2     
  10 C10           -1.9400    -0.1489    -0.2268 C.2     
  11 C11           -2.2291    -1.5740     0.0118 C.2     
  12 O12           -1.3358    -2.3276     0.3484 O.2     
  13 N13           -3.4833    -2.0423    -0.1431 N.am    
  14 C14            2.0257    -0.2154     2.2102 C.3     
  15 C15           -4.9911    -3.8627    -0.6925 C.2     
  16 C16           -3.7707    -3.4591     0.0941 C.3     
  17 C17           -4.0276    -3.6847     1.5854 C.3     
  18 C18           -4.4346    -5.1411     1.8182 C.3     
  19 O19           -5.8447    -3.0410    -0.9515 O.2     
  20 N20           -5.1340    -5.1367    -1.1082 N.am    
  21 C21           -6.3659    -5.5698    -1.7825 C.3     
  22 C22           -5.9926    -6.1885    -3.1353 C.3     
  23 N23           -4.9191    -7.1694    -2.9229 N.am    
  24 C24           -3.6872    -6.7364    -2.2486 C.3     
  25 C25           -4.0583    -6.1163    -0.9008 C.3     
  26 S26           -5.0947    -8.7349    -3.4337 S.o2    
  27 O27           -4.2454    -9.4816    -2.5732 O.2     
  28 O28           -6.4999    -8.9460    -3.4398 O.2     
  29 C29           -4.4437    -8.7343    -5.1268 C.3     
  30 C30           -2.7528    -3.3791     2.3744 C.3     
  31 C31           -5.1521    -2.7596     2.0549 C.3     
  32 C32           -2.8460     3.2245    -1.1144 C.ar    
  33 C33           -3.6942     3.2729    -2.2240 C.ar    
  34 C34           -4.2783     4.4706    -2.5911 C.ar    
  35 C35           -4.0247     5.6185    -1.8628 C.ar    
  36 C36           -3.1848     5.5766    -0.7628 C.ar    
  37 C37           -2.5992     4.3855    -0.3818 C.ar    
  38 F38           -3.9422     2.1521    -2.9363 F       
  39 Cl39          -2.8724     7.0239     0.1436 Cl      
  40 H40            0.3941    -1.1911     0.6627 H       
  41 H41            1.2168    -0.2680    -0.6194 H       
  42 H42            2.2102     2.4853     1.3575 H       
  43 H43            3.0882     1.2207     0.4715 H       
  44 H44            2.1700     2.8737    -1.0939 H       
  45 H45            1.3667     1.3028    -1.3201 H       
  46 H46           -0.0597     3.5483    -1.1332 H       
  47 H47            0.1565     3.2725     0.6133 H       
  48 H48           -4.1958    -1.4412    -0.4115 H       
  49 H49            2.7344    -0.8215     1.6457 H       
  50 H50            2.5680     0.4192     2.9111 H       
  51 H51            1.3474    -0.8676     2.7604 H       
  52 H52           -2.9188    -4.0607    -0.2229 H       
  53 H53           -3.6316    -5.8000     1.4880 H       
  54 H54           -4.6221    -5.3007     2.8800 H       
  55 H55           -5.3402    -5.3601     1.2525 H       
  56 H56           -6.8770    -6.3121    -1.1694 H       
  57 H57           -7.0179    -4.7107    -1.9406 H       
  58 H58           -6.8632    -6.6858    -3.5629 H       
  59 H59           -5.6457    -5.4072    -3.8116 H       
  60 H60           -3.0353    -7.5955    -2.0905 H       
  61 H61           -3.1761    -5.9941    -2.8617 H       
  62 H62           -3.1865    -5.6180    -0.4766 H       
  63 H63           -4.4013    -6.8984    -0.2234 H       
  64 H64           -3.3985    -8.4252    -5.1141 H       
  65 H65           -4.5208    -9.7374    -5.5461 H       
  66 H66           -5.0205    -8.0398    -5.7376 H       
  67 H67           -2.4628    -2.3416     2.2086 H       
  68 H68           -2.9358    -3.5399     3.4369 H       
  69 H69           -1.9517    -4.0382     2.0400 H       
  70 H70           -6.0603    -2.9773     1.4928 H       
  71 H71           -5.3351    -2.9203     3.1174 H       
  72 H72           -4.8621    -1.7220     1.8891 H       
  73 H73           -4.9339     4.5101    -3.4485 H       
  74 H74           -4.4835     6.5520    -2.1536 H       
  75 H75           -1.9482     4.3537     0.4794 H       
@<TRIPOS>BOND
   1    1    2 1
   2    1    7 1
   3    1    8 1
   4    2    3 1
   5    2   10 2
   6    3    4 1
   7    3   40 1
   8    3   41 1
   9    4    5 1
  10    4   14 1
  11    5    6 1
  12    5   42 1
  13    5   43 1
  14    6    7 1
  15    6   44 1
  16    6   45 1
  17    7   46 1
  18    7   47 1
  19    8    9 2
  20    8   32 1
  21    9   10 1
  22   10   11 1
  23   11   12 2
  24   11   13 am
  25   13   16 1
  26   13   48 1
  27   14   49 1
  28   14   50 1
  29   14   51 1
  30   15   19 2
  31   15   20 am
  32   15   16 1
  33   16   17 1
  34   16   52 1
  35   17   18 1
  36   17   30 1
  37   17   31 1
  38   18   53 1
  39   18   54 1
  40   18   55 1
  41   20   21 1
  42   20   25 1
  43   21   22 1
  44   21   56 1
  45   21   57 1
  46   22   23 1
  47   22   58 1
  48   22   59 1
  49   23   24 1
  50   23   26 am
  51   24   25 1
  52   24   60 1
  53   24   61 1
  54   25   62 1
  55   25   63 1
  56   26   27 2
  57   26   28 2
  58   26   29 1
  59   29   64 1
  60   29   65 1
  61   29   66 1
  62   30   67 1
  63   30   68 1
  64   30   69 1
  65   31   70 1
  66   31   71 1
  67   31   72 1
  68   32   33 ar
  69   32   37 ar
  70   33   34 ar
  71   33   38 1
  72   34   35 ar
  73   34   73 1
  74   35   36 ar
  75   35   74 1
  76   36   37 ar
  77   36   39 1
  78   37   75 1

#	End of record

