#	Name: ASD01209259
#	Creating user name:	WinNT
#	Creation time:	15. 06. 2019 19:11

#	Modifying user name:	WinNT
#	Modification time:	15. 06. 2019 19:11

#	Program:	/corina/corina34_cracker 3.40 0067  02.08.2006

@<TRIPOS>MOLECULE
ASD01209259
  79   81    0    0    0
SMALL
NO_CHARGES


@<TRIPOS>ATOM
   1 O1            -2.8254     7.6547     2.0137 O.3     
   2 O2            -0.4098     6.7949     2.5947 O.3     
   3 C3             9.0312     9.1154     1.8176 C.ar    
   4 C4             9.0657     8.9319     3.1920 C.ar    
   5 C5             7.8842     8.8666     3.9173 C.ar    
   6 C6             6.6650     8.9845     3.2706 C.ar    
   7 C7             6.6259     9.1693     1.8880 C.ar    
   8 C8             7.8163     9.2397     1.1636 C.ar    
   9 O9             7.9236     8.6866     5.2636 O.3     
  10 C10            5.3271     9.2958     1.1936 C.2     
  11 N11            4.1785     9.2327     1.8958 N.am    
  12 O12            5.2950     9.4567    -0.0109 O.2     
  13 C13            2.9581     9.3515     1.2433 C.2     
  14 P14           -1.2786     7.6798     1.5679 P.3     
  15 O15           -1.1493     7.1212     0.2035 O.2     
  16 C16           -0.6701     9.3982     1.5811 C.3     
  17 N17            1.7990     9.3051     1.8221 N.2     
  18 S18            2.7661     9.5877    -0.4390 S.3     
  19 C19            1.0149     9.6036    -0.2476 C.2     
  20 C20            0.7386     9.4364     1.0472 C.2     
  21 O21           10.1911     9.1792     1.1122 O.3     
  22 C22           10.0820     9.2473    -0.3110 C.3     
  23 C23           11.3674     8.7142    -0.9471 C.3     
  24 O24           12.4578     9.5741    -0.6099 O.3     
  25 C25            9.8670    10.7009    -0.7370 C.3     
  26 C26            7.6406     7.4499     5.7505 C.ar    
  27 C27            7.5721     7.2413     7.1206 C.ar    
  28 C28            7.2838     5.9832     7.6129 C.ar    
  29 C29            7.0635     4.9323     6.7417 C.ar    
  30 C30            7.1312     5.1375     5.3760 C.ar    
  31 C31            7.4140     6.3948     4.8783 C.ar    
  32 S32            6.6966     3.3288     7.3730 S.o2    
  33 O33            7.1353     2.4418     6.3531 O.2     
  34 O34            7.2933     3.3149     8.6626 O.2     
  35 C35            4.8879     3.2985     7.5081 C.3     
  36 C36           -0.6196     5.3944     2.7856 C.3     
  37 C37            0.6170     4.6249     2.3169 C.3     
  38 C38           -3.8824     8.1420     1.1845 C.3     
  39 C39           -4.7999     6.9818     0.7934 C.3     
  40 C40           13.7124     9.1637    -1.1574 C.3     
  41 C41           -0.8634     5.1128     4.2696 C.3     
  42 C42           -4.6878     9.1935     1.9502 C.3     
  43 H43           10.0146     8.8392     3.6992 H       
  44 H44            5.7460     8.9329     3.8356 H       
  45 H45            7.7904     9.3830     0.0935 H       
  46 H46            4.2041     9.1043     2.8569 H       
  47 H47           -1.3131    10.0161     0.9544 H       
  48 H48           -0.6823     9.7801     2.6020 H       
  49 H49            0.2913     9.7301    -1.0394 H       
  50 H50            9.2363     8.6433    -0.6399 H       
  51 H51           11.5679     7.7099    -0.5741 H       
  52 H52           11.2508     8.6830    -2.0304 H       
  53 H53            9.7837    10.7529    -1.8226 H       
  54 H54            8.9512    11.0807    -0.2838 H       
  55 H55           10.7126    11.3049    -0.4081 H       
  56 H56            7.7444     8.0617     7.8015 H       
  57 H57            7.2307     5.8203     8.6792 H       
  58 H58            6.9592     4.3149     4.6976 H       
  59 H59            7.4668     6.5545     3.8115 H       
  60 H60            4.4473     3.4591     6.5242 H       
  61 H61            4.5686     2.3310     7.8957 H       
  62 H62            4.5609     4.0872     8.1857 H       
  63 H63           -1.4869     5.0748     2.2079 H       
  64 H64            0.4570     3.5566     2.4625 H       
  65 H65            0.7907     4.8255     1.2597 H       
  66 H66            1.4843     4.9444     2.8947 H       
  67 H67           -3.4610     8.5910     0.2851 H       
  68 H68           -5.2871     6.5874     1.6851 H       
  69 H69           -5.5562     7.3368     0.0932 H       
  70 H70           -4.2103     6.1948     0.3232 H       
  71 H71           14.4881     9.8677    -0.8559 H       
  72 H72           13.9616     8.1687    -0.7888 H       
  73 H73           13.6445     9.1418    -2.2450 H       
  74 H74           -1.6920     5.7258     4.6243 H       
  75 H75           -1.1074     4.0590     4.4041 H       
  76 H76            0.0354     5.3530     4.8374 H       
  77 H77           -4.0341    10.0201     2.2288 H       
  78 H78           -5.4940     9.5652     1.3177 H       
  79 H79           -5.1092     8.7445     2.8496 H       
@<TRIPOS>BOND
   1    1   38 1
   2    1   14 1
   3    2   36 1
   4    2   14 1
   5    3    4 ar
   6    3   21 1
   7    3    8 ar
   8    4    5 ar
   9    4   43 1
  10    5    6 ar
  11    5    9 1
  12    6    7 ar
  13    6   44 1
  14    7    8 ar
  15    7   10 1
  16    8   45 1
  17    9   26 1
  18   10   11 am
  19   10   12 2
  20   11   13 1
  21   11   46 1
  22   13   17 2
  23   13   18 1
  24   14   15 2
  25   14   16 1
  26   16   20 1
  27   16   47 1
  28   16   48 1
  29   17   20 1
  30   18   19 1
  31   19   20 2
  32   19   49 1
  33   21   22 1
  34   22   23 1
  35   22   25 1
  36   22   50 1
  37   23   24 1
  38   23   51 1
  39   23   52 1
  40   24   40 1
  41   25   53 1
  42   25   54 1
  43   25   55 1
  44   26   27 ar
  45   26   31 ar
  46   27   28 ar
  47   27   56 1
  48   28   29 ar
  49   28   57 1
  50   29   30 ar
  51   29   32 1
  52   30   31 ar
  53   30   58 1
  54   31   59 1
  55   32   33 2
  56   32   34 2
  57   32   35 1
  58   35   60 1
  59   35   61 1
  60   35   62 1
  61   36   37 1
  62   36   41 1
  63   36   63 1
  64   37   64 1
  65   37   65 1
  66   37   66 1
  67   38   39 1
  68   38   42 1
  69   38   67 1
  70   39   68 1
  71   39   69 1
  72   39   70 1
  73   40   71 1
  74   40   72 1
  75   40   73 1
  76   41   74 1
  77   41   75 1
  78   41   76 1
  79   42   77 1
  80   42   78 1
  81   42   79 1

#	End of record

