#	Name: ASD01148154
#	Creating user name:	WinNT
#	Creation time:	15. 06. 2019 19:02

#	Modifying user name:	WinNT
#	Modification time:	15. 06. 2019 19:02

#	Program:	/corina/corina34_cracker 3.40 0067  02.08.2006

@<TRIPOS>MOLECULE
ASD01148154
  59   63    0    0    0
SMALL
NO_CHARGES


@<TRIPOS>ATOM
   1 N1            -0.0111     1.3368     0.0377 N.pl3   
   2 C2             0.0054    -0.0025     0.0180 C.2     
   3 C3             1.1802    -0.7250     0.0054 C.2     
   4 C4             2.4596     0.0028     0.0139 C.2     
   5 C5             2.3947     1.4748     0.0356 C.ar    
   6 C6             3.5547     2.2519     0.0450 C.ar    
   7 C7             3.4123     3.6333     0.0655 C.ar    
   8 C8             2.1326     4.1832     0.0757 C.ar    
   9 N9             1.0579     3.4245     0.0669 N.ar    
  10 C10            1.1355     2.0993     0.0470 C.ar    
  11 C11            1.1551    -2.1961    -0.0157 C.2     
  12 O12            0.0962    -2.7876     0.0762 O.2     
  13 N13            2.3053    -2.8880    -0.1368 N.am    
  14 O14            3.5262    -0.5864     0.0038 O.2     
  15 C15           -1.3066     2.0208     0.0436 C.3     
  16 C16           -1.7622     2.2376     1.4880 C.3     
  17 N17            4.5395     4.4617     0.0762 N.pl3   
  18 C18            5.6184     6.5977     0.7159 C.3     
  19 C19            4.3784     5.9176     0.0978 C.3     
  20 C20            4.3669     6.4897    -1.3357 C.3     
  21 C21            5.0685     7.8271    -1.2341 C.ar    
  22 C22            5.0771     8.9045    -2.1042 C.ar    
  23 C23            5.8014    10.0397    -1.7978 C.ar    
  24 C24            6.5206    10.1018    -0.6187 C.ar    
  25 C25            6.5133     9.0285     0.2503 C.ar    
  26 C26            5.7876     7.8892    -0.0553 C.ar    
  27 O27            1.4450    -6.8457    -0.6964 O.3     
  28 C28            2.7249    -6.3922    -1.1453 C.3     
  29 C29            2.6911    -4.8709    -1.3140 C.3     
  30 N30            2.2959    -4.2506    -0.0410 N.3     
  31 C31            0.9781    -4.7395     0.3897 C.3     
  32 C32            1.0291    -6.2621     0.5413 C.3     
  33 H33           -0.9341    -0.5352     0.0122 H       
  34 H34            4.5324     1.7930     0.0370 H       
  35 H35            2.0201     5.2572     0.0917 H       
  36 H36            3.1398    -2.4184    -0.2919 H       
  37 H37           -1.2108     2.9849    -0.4557 H       
  38 H38           -2.0418     1.4111    -0.4816 H       
  39 H39           -2.7261     2.7466     1.4925 H       
  40 H40           -1.8581     1.2735     1.9874 H       
  41 H41           -1.0271     2.8473     2.0133 H       
  42 H42            5.4278     4.0721     0.0693 H       
  43 H43            5.4478     6.8074     1.7719 H       
  44 H44            6.4976     5.9654     0.5923 H       
  45 H45            3.4736     6.1977     0.6373 H       
  46 H46            4.9095     5.8283    -2.0112 H       
  47 H47            3.3419     6.6256    -1.6805 H       
  48 H48            4.5157     8.8567    -3.0257 H       
  49 H49            5.8062    10.8781    -2.4786 H       
  50 H50            7.0879    10.9887    -0.3776 H       
  51 H51            7.0754     9.0777     1.1712 H       
  52 H52            3.4842    -6.6602    -0.4106 H       
  53 H53            2.9617    -6.8592    -2.1013 H       
  54 H54            3.6803    -4.5145    -1.6010 H       
  55 H55            1.9697    -4.6064    -2.0871 H       
  56 H56            0.7169    -4.2870     1.3464 H       
  57 H57            0.2293    -4.4729    -0.3562 H       
  58 H58            0.0394    -6.6350     0.8051 H       
  59 H59            1.7391    -6.5262     1.3250 H       
@<TRIPOS>BOND
   1    1    2 1
   2    1   10 1
   3    1   15 1
   4    2    3 2
   5    2   33 1
   6    3    4 1
   7    3   11 1
   8    4    5 1
   9    4   14 2
  10    5    6 ar
  11    5   10 ar
  12    6    7 ar
  13    6   34 1
  14    7    8 ar
  15    7   17 1
  16    8    9 ar
  17    8   35 1
  18    9   10 ar
  19   11   12 2
  20   11   13 am
  21   13   30 1
  22   13   36 1
  23   15   16 1
  24   15   37 1
  25   15   38 1
  26   16   39 1
  27   16   40 1
  28   16   41 1
  29   17   19 1
  30   17   42 1
  31   18   19 1
  32   18   26 1
  33   18   43 1
  34   18   44 1
  35   19   20 1
  36   19   45 1
  37   20   21 1
  38   20   46 1
  39   20   47 1
  40   21   22 ar
  41   21   26 ar
  42   22   23 ar
  43   22   48 1
  44   23   24 ar
  45   23   49 1
  46   24   25 ar
  47   24   50 1
  48   25   26 ar
  49   25   51 1
  50   27   28 1
  51   27   32 1
  52   28   29 1
  53   28   52 1
  54   28   53 1
  55   29   30 1
  56   29   54 1
  57   29   55 1
  58   30   31 1
  59   31   32 1
  60   31   56 1
  61   31   57 1
  62   32   58 1
  63   32   59 1

#	End of record

