#	Name: ASD01120230
#	Creating user name:	WinNT
#	Creation time:	15. 06. 2019 18:59

#	Modifying user name:	WinNT
#	Modification time:	15. 06. 2019 18:59

#	Program:	/corina/corina34_cracker 3.40 0067  02.08.2006

@<TRIPOS>MOLECULE
ASD01120230
  58   59    0    0    0
SMALL
NO_CHARGES


@<TRIPOS>ATOM
   1 C1            -0.0167     1.3779     0.0096 C.ar    
   2 C2             0.0021    -0.0041     0.0020 C.ar    
   3 C3            -1.1857    -0.7116     0.0095 C.ar    
   4 C4            -2.3919    -0.0369     0.0251 C.ar    
   5 C5            -2.4106     1.3455     0.0336 C.ar    
   6 C6            -1.2232     2.0528     0.0305 C.ar    
   7 S7            -3.9483     2.2057     0.0529 S.o2    
   8 N8            -4.3616     2.4354     1.6399 N.am    
   9 C9            -3.6009     3.2212     2.4274 C.2     
  10 N10           -3.9372     3.4082     3.7191 N.am    
  11 O11           -3.6934     3.4955    -0.4862 O.2     
  12 O12           -4.9136     1.3142    -0.4882 O.2     
  13 O13           -2.6111     3.7615     1.9726 O.2     
  14 C14           -3.4310     3.6603    14.3026 C.ar    
  15 C15           -2.2317     3.2911    14.8818 C.ar    
  16 C16           -1.1458     4.1452    14.8275 C.ar    
  17 C17           -1.2597     5.3683    14.1939 C.ar    
  18 C18           -2.4594     5.7376    13.6145 C.ar    
  19 C19           -3.5432     4.8814    13.6638 C.ar    
  20 S20           -2.6045     7.2968    12.8067 S.o2    
  21 N21           -2.1912     7.0671    11.2197 N.am    
  22 C22           -2.9520     6.2813    10.4321 C.2     
  23 N23           -2.6156     6.0943     9.1405 N.am    
  24 O24           -3.9865     7.6273    12.8177 O.2     
  25 O25           -1.6009     8.1333    13.3657 O.2     
  26 O26           -3.9418     5.7411    10.8869 O.2     
  27 C27           -2.8446     5.1973     6.8768 C.3     
  28 C28           -3.7082     4.3052     5.9828 C.3     
  29 C29           -4.6146     2.7294    14.3619 C.3     
  30 C30            1.2780     2.1491     0.0014 C.3     
  31 C31           -3.1103     4.2624     4.5751 C.3     
  32 C32           -3.4426     5.2401     8.2845 C.3     
  33 H33            0.9446    -0.5313    -0.0101 H       
  34 H34           -1.1711    -1.7915     0.0029 H       
  35 H35           -3.3198    -0.5895     0.0302 H       
  36 H36           -1.2378     3.1327     0.0372 H       
  37 H37           -5.1512     2.0044     2.0027 H       
  38 H38           -4.7269     2.9772     4.0819 H       
  39 H39           -2.1428     2.3355    15.3772 H       
  40 H40           -0.2089     3.8570    15.2807 H       
  41 H41           -0.4117     6.0358    14.1520 H       
  42 H42           -4.4804     5.1699    13.2112 H       
  43 H43           -1.4016     7.4981    10.8568 H       
  44 H44           -1.8260     6.5253     8.7777 H       
  45 H45           -1.8331     4.7940     6.9238 H       
  46 H46           -2.8149     6.2056     6.4638 H       
  47 H47           -3.7379     3.2969     6.3958 H       
  48 H48           -4.7198     4.7085     5.9357 H       
  49 H49           -5.1947     2.9360    15.2612 H       
  50 H50           -5.2408     2.8813    13.4827 H       
  51 H51           -4.2644     1.6974    14.3845 H       
  52 H52            1.5804     2.3405    -1.0282 H       
  53 H53            1.1397     3.0969     0.5217 H       
  54 H54            2.0505     1.5677     0.5048 H       
  55 H55           -2.0987     3.8591     4.6222 H       
  56 H56           -3.0806     5.2707     4.1621 H       
  57 H57           -3.4723     4.2318     8.6974 H       
  58 H58           -4.4541     5.6434     8.2374 H       
@<TRIPOS>BOND
   1    1    2 ar
   2    1   30 1
   3    1    6 ar
   4    2    3 ar
   5    2   33 1
   6    3    4 ar
   7    3   34 1
   8    4    5 ar
   9    4   35 1
  10    5    6 ar
  11    5    7 1
  12    6   36 1
  13    7    8 am
  14    7   11 2
  15    7   12 2
  16    8    9 am
  17    8   37 1
  18    9   10 am
  19    9   13 2
  20   10   31 1
  21   10   38 1
  22   14   15 ar
  23   14   29 1
  24   14   19 ar
  25   15   16 ar
  26   15   39 1
  27   16   17 ar
  28   16   40 1
  29   17   18 ar
  30   17   41 1
  31   18   19 ar
  32   18   20 1
  33   19   42 1
  34   20   21 am
  35   20   24 2
  36   20   25 2
  37   21   22 am
  38   21   43 1
  39   22   23 am
  40   22   26 2
  41   23   32 1
  42   23   44 1
  43   27   28 1
  44   27   32 1
  45   27   45 1
  46   27   46 1
  47   28   31 1
  48   28   47 1
  49   28   48 1
  50   29   49 1
  51   29   50 1
  52   29   51 1
  53   30   52 1
  54   30   53 1
  55   30   54 1
  56   31   55 1
  57   31   56 1
  58   32   57 1
  59   32   58 1

#	End of record

