#	Name: ASD02560387
#	Creating user name:	WinNT
#	Creation time:	15. 06. 2019 20:25

#	Modifying user name:	WinNT
#	Modification time:	15. 06. 2019 20:25

#	Program:	/corina/corina34_cracker 3.40 0067  02.08.2006

@<TRIPOS>MOLECULE
ASD02560387
  43   46    0    0    0
SMALL
NO_CHARGES


@<TRIPOS>ATOM
   1 C1             0.1014     1.3921     0.9695 C.2     
   2 C2             0.0824     0.0033     0.7492 C.2     
   3 C3             1.2273    -0.6619     0.4958 C.2     
   4 N4             2.4236     0.0025     0.4486 N.pl3   
   5 C5             2.4732     1.3616     0.6597 C.2     
   6 C6             1.2807     2.0672     0.9262 C.2     
   7 C7             3.7025    -0.4212     0.2162 C.2     
   8 C8             4.5128     0.6955     0.2906 C.2     
   9 N9             3.7314     1.7586     0.5613 N.2     
  10 C10            5.9772     0.7190     0.1066 C.2     
  11 N11            4.1109    -1.7292    -0.0450 N.3     
  12 C12            2.9871    -2.6667     0.0815 C.3     
  13 C13            3.5012    -4.1010    -0.0586 C.3     
  14 C14            2.7864    -6.4033    -0.2947 C.3     
  15 N15            2.3773    -5.0385     0.0679 N.3     
  16 C16            6.6937     1.7218    -0.4701 C.2     
  17 C17            1.6047    -7.3553    -0.0920 C.3     
  18 O18            0.4931    -6.8992    -0.8676 O.3     
  19 C19            0.0678    -5.5735    -0.5402 C.3     
  20 C20            1.2340    -4.6035    -0.7475 C.3     
  21 C21            8.0468     1.3262    -0.4351 C.2     
  22 C22            8.0891     0.1161     0.1541 C.2     
  23 O23            6.8372    -0.2457     0.4857 O.3     
  24 H24           -0.8187     1.9215     1.1681 H       
  25 H25           -0.8542    -0.5333     0.7836 H       
  26 H26            1.2006    -1.7286     0.3289 H       
  27 H27            1.3044     3.1339     1.0935 H       
  28 H28            4.5394    -1.7992    -0.9558 H       
  29 H29            2.5183    -2.5425     1.0577 H       
  30 H30            2.2557    -2.4649    -0.7011 H       
  31 H31            3.9699    -4.2252    -1.0348 H       
  32 H32            4.2326    -4.3028     0.7239 H       
  33 H33            3.0962    -6.4249    -1.3395 H       
  34 H34            3.6173    -6.7145     0.3385 H       
  35 H35            6.3018     2.6425    -0.8764 H       
  36 H36            1.8859    -8.3581    -0.4135 H       
  37 H37            1.3294    -7.3743     0.9625 H       
  38 H38           -0.7625    -5.2878    -1.1860 H       
  39 H39           -0.2522    -5.5408     0.5012 H       
  40 H40            0.9316    -3.6009    -0.4449 H       
  41 H41            1.5189    -4.5964    -1.7996 H       
  42 H42            8.8897     1.8874    -0.8105 H       
  43 H43            8.9812    -0.4654     0.3346 H       
@<TRIPOS>BOND
   1    1    2 1
   2    1    6 2
   3    1   24 1
   4    2    3 2
   5    2   25 1
   6    3    4 1
   7    3   26 1
   8    4    5 1
   9    4    7 1
  10    5    6 1
  11    5    9 2
  12    6   27 1
  13    7    8 2
  14    7   11 1
  15    8    9 1
  16    8   10 1
  17   10   16 2
  18   10   23 1
  19   11   12 1
  20   11   28 1
  21   12   13 1
  22   12   29 1
  23   12   30 1
  24   13   15 1
  25   13   31 1
  26   13   32 1
  27   14   15 1
  28   14   17 1
  29   14   33 1
  30   14   34 1
  31   15   20 1
  32   16   21 1
  33   16   35 1
  34   17   18 1
  35   17   36 1
  36   17   37 1
  37   18   19 1
  38   19   20 1
  39   19   38 1
  40   19   39 1
  41   20   40 1
  42   20   41 1
  43   21   22 2
  44   21   42 1
  45   22   23 1
  46   22   43 1

#	End of record

