#	Name: ASD01901620
#	Creating user name:	WinNT
#	Creation time:	15. 06. 2019 19:54

#	Modifying user name:	WinNT
#	Modification time:	15. 06. 2019 19:54

#	Program:	/corina/corina34_cracker 3.40 0067  02.08.2006

@<TRIPOS>MOLECULE
ASD01901620
  47   52    0    0    0
SMALL
NO_CHARGES


@<TRIPOS>ATOM
   1 H1             0.7136    -0.6024     2.3148 H       
   2 C2             0.5563     0.2323     1.6317 C.3     
   3 C3             0.1657    -0.2416     0.2116 C.3     
   4 C4            -0.7801     0.8682    -0.3008 C.3     
   5 C5            -0.8419     1.8728     0.8743 C.3     
   6 H6            -1.8131     2.3623     0.9461 H       
   7 C7             0.3017     2.8829     0.6909 C.3     
   8 N8             1.5493     2.1480     0.4348 N.3     
   9 C9             1.8055     1.1185     1.5055 C.3     
  10 C10            2.6188     3.0170     0.3021 C.ar    
  11 N11            2.6872     4.1020     1.0503 N.ar    
  12 C12            3.6887     4.9685     0.9654 C.ar    
  13 C13            4.7190     4.7951     0.0948 C.ar    
  14 C14            4.7201     3.6595    -0.7406 C.ar    
  15 C15            5.7461     3.4147    -1.6604 C.ar    
  16 C16            5.6900     2.2840    -2.4510 C.ar    
  17 N17            6.7084     2.0328    -3.3700 N.pl3   
  18 C18            6.4237     1.3614    -4.5627 C.2     
  19 N19            5.2388     1.0100    -4.9863 N.2     
  20 N20            5.3434     0.3579    -6.2187 N.pl3   
  21 H21            4.5998     0.0047    -6.7317 H       
  22 C22            6.6595     0.2968    -6.5874 C.ar    
  23 N23            7.2939    -0.2044    -7.6406 N.ar    
  24 C24            8.6065    -0.1116    -7.7211 C.ar    
  25 C25            9.3352     0.5070    -6.7124 C.ar    
  26 N26            8.7235     1.0103    -5.6598 N.ar    
  27 C27            7.3989     0.9304    -5.5665 C.ar    
  28 C28            4.6212     1.3873    -2.3386 C.ar    
  29 C29            3.6133     1.6071    -1.4509 C.ar    
  30 C30            3.6434     2.7427    -0.6301 C.ar    
  31 O31           -0.5345     1.0841     2.0524 O.3     
  32 H32            1.0485    -0.3155    -0.4235 H       
  33 H33           -0.3555    -1.1978     0.2571 H       
  34 H34           -0.3657     1.3440    -1.1896 H       
  35 H35           -1.7697     0.4616    -0.5091 H       
  36 H36            0.0814     3.5342    -0.1549 H       
  37 H37            0.4094     3.4807     1.5960 H       
  38 H38            1.9971     1.6168     2.4558 H       
  39 H39            2.6635     0.5035     1.2341 H       
  40 H40            3.6853     5.8376     1.6066 H       
  41 H41            5.5224     5.5152     0.0441 H       
  42 H42            6.5731     4.1033    -1.7511 H       
  43 H43            7.6143     2.3239    -3.1816 H       
  44 H44            9.1203    -0.5204    -8.5787 H       
  45 H45           10.4101     0.5754    -6.7918 H       
  46 H46            4.5957     0.5085    -2.9658 H       
  47 H47            2.7950     0.9062    -1.3760 H       
@<TRIPOS>BOND
   1    1    2 1
   2    2    9 1
   3    2   31 1
   4    2    3 1
   5    3    4 1
   6    3   32 1
   7    3   33 1
   8    4    5 1
   9    4   34 1
  10    4   35 1
  11    5    6 1
  12    5    7 1
  13    5   31 1
  14    7    8 1
  15    7   36 1
  16    7   37 1
  17    8    9 1
  18    8   10 1
  19    9   38 1
  20    9   39 1
  21   10   30 ar
  22   10   11 ar
  23   11   12 ar
  24   12   13 ar
  25   12   40 1
  26   13   14 ar
  27   13   41 1
  28   14   30 ar
  29   14   15 ar
  30   15   16 ar
  31   15   42 1
  32   16   17 1
  33   16   28 ar
  34   17   18 1
  35   17   43 1
  36   18   27 1
  37   18   19 2
  38   19   20 1
  39   20   21 1
  40   20   22 1
  41   22   27 ar
  42   22   23 ar
  43   23   24 ar
  44   24   25 ar
  45   24   44 1
  46   25   26 ar
  47   25   45 1
  48   26   27 ar
  49   28   29 ar
  50   28   46 1
  51   29   30 ar
  52   29   47 1

#	End of record

