#	Name: ASD01140508
#	Creating user name:	WinNT
#	Creation time:	15. 06. 2019 19:01

#	Modifying user name:	WinNT
#	Modification time:	15. 06. 2019 19:01

#	Program:	/corina/corina34_cracker 3.40 0067  02.08.2006

@<TRIPOS>MOLECULE
ASD01140508
  43   44    0    0    0
SMALL
NO_CHARGES


@<TRIPOS>ATOM
   1 C1            -0.0166     1.3764     0.0096 C.ar    
   2 C2             0.0021    -0.0041     0.0020 C.ar    
   3 C3             1.2065    -0.6843    -0.0131 C.ar    
   4 C4             2.4008     0.0119    -0.0208 C.ar    
   5 C5             2.3966     1.3971    -0.0133 C.ar    
   6 C6             1.1807     2.0876     0.0020 C.ar    
   7 C7             1.1662     3.5707     0.0096 C.ar    
   8 C8             0.3753     4.2655    -0.9038 C.ar    
   9 C9             0.3617     5.6459    -0.8969 C.ar    
  10 C10            1.1334     6.3451     0.0178 C.ar    
  11 C11            1.9263     5.6562     0.9343 C.ar    
  12 C12            1.9390     4.2712     0.9338 C.ar    
  13 O13            3.5697     2.0824    -0.0204 O.3     
  14 O14            1.1174     7.7049     0.0208 O.3     
  15 C15           -1.2942    -0.7726     0.0108 C.3     
  16 C16           -1.7404    -1.0211    -1.4070 C.2     
  17 C17           -1.9860    -2.2426    -1.8118 C.2     
  18 C18           -0.4938     6.3943    -1.8865 C.3     
  19 C19           -1.7652     6.8428    -1.2131 C.2     
  20 C20           -2.1041     8.1081    -1.2300 C.2     
  21 C21            4.7720     1.3102    -0.0356 C.3     
  22 N22            2.7054     6.3635     1.8572 N.pl3   
  23 H23           -0.9589     1.9042     0.0169 H       
  24 H24            1.2139    -1.7643    -0.0186 H       
  25 H25            3.3380    -0.5247    -0.0323 H       
  26 H26           -0.2271     3.7236    -1.6178 H       
  27 H27            2.5496     3.7354     1.6454 H       
  28 H28            0.4410     8.0890     0.5954 H       
  29 H29           -1.1478    -1.7262     0.5181 H       
  30 H30           -2.0554    -0.1951     0.5353 H       
  31 H31           -1.8577    -0.1923    -2.0894 H       
  32 H32           -1.8688    -3.0714    -1.1294 H       
  33 H33           -2.3058    -2.4207    -2.8279 H       
  34 H34            0.0506     7.2651    -2.2518 H       
  35 H35           -0.7373     5.7404    -2.7238 H       
  36 H36           -2.3969     6.1211    -0.7166 H       
  37 H37           -1.4724     8.8298    -1.7265 H       
  38 H38           -3.0153     8.4296    -0.7475 H       
  39 H39            5.6331     1.9786    -0.0399 H       
  40 H40            4.8083     0.6768     0.8507 H       
  41 H41            4.7919     0.6864    -0.9291 H       
  42 H42            2.6938     7.3334     1.8592 H       
  43 H43            3.2570     5.8838     2.4948 H       
@<TRIPOS>BOND
   1    1    2 ar
   2    1    6 ar
   3    1   23 1
   4    2    3 ar
   5    2   15 1
   6    3    4 ar
   7    3   24 1
   8    4    5 ar
   9    4   25 1
  10    5    6 ar
  11    5   13 1
  12    6    7 1
  13    7    8 ar
  14    7   12 ar
  15    8    9 ar
  16    8   26 1
  17    9   10 ar
  18    9   18 1
  19   10   11 ar
  20   10   14 1
  21   11   12 ar
  22   11   22 1
  23   12   27 1
  24   13   21 1
  25   14   28 1
  26   15   16 1
  27   15   29 1
  28   15   30 1
  29   16   17 2
  30   16   31 1
  31   17   32 1
  32   17   33 1
  33   18   19 1
  34   18   34 1
  35   18   35 1
  36   19   20 2
  37   19   36 1
  38   20   37 1
  39   20   38 1
  40   21   39 1
  41   21   40 1
  42   21   41 1
  43   22   42 1
  44   22   43 1

#	End of record

