#	Name: ASD05470004
#	Creating user name:	WinNT
#	Creation time:	15. 06. 2019 21:00

#	Modifying user name:	WinNT
#	Modification time:	15. 06. 2019 21:00

#	Program:	/corina/corina34_cracker 3.40 0067  02.08.2006

@<TRIPOS>MOLECULE
ASD05470004
  40   43    0    0    0
SMALL
NO_CHARGES


@<TRIPOS>ATOM
   1 Cl1           -1.6866     0.9238     8.6276 Cl      
   2 S2            -0.0218     1.7546     0.0117 S.3     
   3 S3            -3.3451     0.5347     3.3145 S.3     
   4 O4            -3.9896    -0.2958    -2.2456 O.3     
   5 O5             0.0561    -1.8623    -2.5769 O.3     
   6 O6            -4.3674     0.3968     0.6082 O.2     
   7 O7            -1.8264    -1.3707    -3.6496 O.2     
   8 N8            -2.2378    -0.3368     0.9066 N.am    
   9 N9            -1.0382    -0.3982     2.9478 N.2     
  10 C10           -1.2174    -0.8895     0.0081 C.3     
  11 C11           -1.8414    -0.9238    -1.3674 C.2     
  12 C12            0.0021    -0.0041     0.0020 C.2     
  13 C13           -3.3342    -0.0715     0.1732 C.2     
  14 C14           -3.0956    -0.4333    -1.2397 C.2     
  15 C15           -2.0990    -0.1306     2.2679 C.2     
  16 C16           -1.2096    -1.3972    -2.6024 C.2     
  17 C17            1.2646    -0.4342    -0.0123 C.2     
  18 C18           -2.2706     0.3969     4.7041 C.ar    
  19 C19           -1.0548    -0.1405     4.2703 C.ar    
  20 C20            2.2216     0.5659    -0.0161 C.2     
  21 C21            1.7362     1.8083    -0.0048 C.2     
  22 C22           -2.4592     0.7222     6.0454 C.ar    
  23 C23           -0.0324    -0.3420     5.2223 C.ar    
  24 C24            0.6177    -2.3146    -3.8372 C.3     
  25 C25           -1.4469     0.5164     6.9572 C.ar    
  26 C26           -0.2348    -0.0163     6.5391 C.ar    
  27 C27            2.0500    -2.8028    -3.6113 C.3     
  28 H28           -0.9476    -1.8977     0.3225 H       
  29 H29            1.5208    -1.4834    -0.0201 H       
  30 H30            3.2810     0.3563    -0.0270 H       
  31 H31            2.3315     2.7094    -0.0060 H       
  32 H32           -4.8394     0.0733    -1.9688 H       
  33 H33           -3.4015     1.1372     6.3714 H       
  34 H34            0.9156    -0.7558     4.9117 H       
  35 H35            0.0134    -3.1314    -4.2319 H       
  36 H36            0.6232    -1.4895    -4.5494 H       
  37 H37            0.5556    -0.1762     7.2575 H       
  38 H38            2.0446    -3.6279    -2.8990 H       
  39 H39            2.4716    -3.1423    -4.5573 H       
  40 H40            2.6543    -1.9860    -3.2165 H       
@<TRIPOS>BOND
   1    1   25 1
   2    2   12 1
   3    2   21 1
   4    3   15 1
   5    3   18 1
   6    4   14 1
   7    4   32 1
   8    5   16 1
   9    5   24 1
  10    6   13 2
  11    7   16 2
  12    8   10 1
  13    8   13 am
  14    8   15 1
  15    9   15 2
  16    9   19 1
  17   10   11 1
  18   10   12 1
  19   10   28 1
  20   11   14 2
  21   11   16 1
  22   12   17 2
  23   13   14 1
  24   17   20 1
  25   17   29 1
  26   18   19 ar
  27   18   22 ar
  28   19   23 ar
  29   20   21 2
  30   20   30 1
  31   21   31 1
  32   22   25 ar
  33   22   33 1
  34   23   26 ar
  35   23   34 1
  36   24   27 1
  37   24   35 1
  38   24   36 1
  39   25   26 ar
  40   26   37 1
  41   27   38 1
  42   27   39 1
  43   27   40 1

#	End of record

