#	Name: ASD01870580
#	Creating user name:	WinNT
#	Creation time:	15. 06. 2019 19:39

#	Modifying user name:	WinNT
#	Modification time:	15. 06. 2019 19:39

#	Program:	/corina/corina34_cracker 3.40 0067  02.08.2006

@<TRIPOS>MOLECULE
ASD01870580
  41   44    0    0    0
SMALL
NO_CHARGES


@<TRIPOS>ATOM
   1 C1            -0.0107     1.3944     0.0268 C.ar    
   2 C2             0.0041     0.0062     0.0172 C.ar    
   3 C3             1.2070    -0.6715    -0.0031 C.ar    
   4 C4             2.4025     0.0350    -0.0140 C.ar    
   5 C5             2.3887     1.4241    -0.0049 C.ar    
   6 C6             1.1858     2.1023     0.0155 C.ar    
   7 N7             3.6216    -0.6526    -0.0337 N.am    
   8 C8             4.6709    -0.1446    -0.7100 C.2     
   9 C9             5.9792    -0.8025    -0.6353 C.2     
  10 O10            6.2661    -1.9194     0.0650 O.3     
  11 C11            7.1193    -0.3955    -1.2672 C.2     
  12 C12            8.1234    -1.3120    -0.9179 C.2     
  13 C13            7.5586    -2.2286    -0.1014 C.2     
  14 C14            7.2703     0.8051    -2.1655 C.3     
  15 O15            4.5326     0.8602    -1.3828 O.2     
  16 Cl16           1.1678     3.8381     0.0269 Cl      
  17 N17           -1.2309     2.0817     0.0421 N.am    
  18 C18           -1.9034     2.4589     1.1432 C.2     
  19 C19           -3.1464     3.1595     0.7687 C.ar    
  20 C20           -1.9830     2.5144    -1.1412 C.3     
  21 C21           -5.2367     4.3358     0.8977 C.ar    
  22 C22           -5.3018     4.3745    -0.4839 C.ar    
  23 C23           -4.2912     3.8093    -1.2449 C.ar    
  24 C24           -3.2213     3.2038    -0.6253 C.ar    
  25 C25           -4.1680     3.7334     1.5282 C.ar    
  26 O26           -1.5394     2.2518     2.2845 O.2     
  27 Br27          -4.3847     3.8638    -3.1328 Br      
  28 H28           -0.9253    -0.5437     0.0260 H       
  29 H29            1.2181    -1.7514    -0.0102 H       
  30 H30            3.3184     1.9735    -0.0130 H       
  31 H31            3.7112    -1.4946     0.4394 H       
  32 H32            9.1531    -1.2902    -1.2429 H       
  33 H33            8.0654    -3.0731     0.3420 H       
  34 H34            7.5512     1.6726    -1.5684 H       
  35 H35            8.0442     0.6087    -2.9075 H       
  36 H36            6.3245     1.0024    -2.6703 H       
  37 H37           -1.3847     3.2074    -1.7326 H       
  38 H38           -2.2618     1.6504    -1.7445 H       
  39 H39           -6.0275     4.7783     1.4854 H       
  40 H40           -6.1418     4.8479    -0.9705 H       
  41 H41           -4.1216     3.7053     2.6069 H       
@<TRIPOS>BOND
   1    1    2 ar
   2    1    6 ar
   3    1   17 1
   4    2    3 ar
   5    2   28 1
   6    3    4 ar
   7    3   29 1
   8    4    5 ar
   9    4    7 1
  10    5    6 ar
  11    5   30 1
  12    6   16 1
  13    7    8 am
  14    7   31 1
  15    8    9 1
  16    8   15 2
  17    9   11 2
  18    9   10 1
  19   10   13 1
  20   11   12 1
  21   11   14 1
  22   12   13 2
  23   12   32 1
  24   13   33 1
  25   14   34 1
  26   14   35 1
  27   14   36 1
  28   17   18 am
  29   17   20 1
  30   18   19 1
  31   18   26 2
  32   19   25 ar
  33   19   24 ar
  34   20   24 1
  35   20   37 1
  36   20   38 1
  37   21   22 ar
  38   21   25 ar
  39   21   39 1
  40   22   23 ar
  41   22   40 1
  42   23   24 ar
  43   23   27 1
  44   25   41 1

#	End of record

