#	Name: ASD05303040
#	Creating user name:	WinNT
#	Creation time:	15. 06. 2019 20:58

#	Modifying user name:	WinNT
#	Modification time:	15. 06. 2019 20:58

#	Program:	/corina/corina34_cracker 3.40 0067  02.08.2006

@<TRIPOS>MOLECULE
ASD05303040
  36   39    0    0    0
SMALL
NO_CHARGES


@<TRIPOS>ATOM
   1 C1             0.0447     1.2594     0.8266 C.ar    
   2 C2             0.1627     0.2821    -0.1509 C.ar    
   3 C3             1.2567    -0.5561    -0.1796 C.ar    
   4 C4             2.2569    -0.4272     0.7786 C.ar    
   5 C5             2.1342     0.5610     1.7696 C.ar    
   6 C6             1.0229     1.4040     1.7859 C.ar    
   7 N7             3.3615    -1.2617     0.7534 N.am    
   8 C8             4.2169    -1.3672     1.8371 C.ar    
   9 C9             4.1752    -0.4178     2.8716 C.ar    
  10 C10            3.1962     0.6843     2.7879 C.2     
  11 C11            5.1286    -2.4154     1.9134 C.ar    
  12 C12            5.9802    -2.5106     2.9932 C.ar    
  13 C13            5.9407    -1.5696     4.0117 C.ar    
  14 C14            5.0446    -0.5244     3.9573 C.ar    
  15 O15            3.2619     1.6510     3.5247 O.2     
  16 C16            3.6099    -1.9898    -0.3532 C.2     
  17 O17            2.7793    -2.0530    -1.2381 O.2     
  18 C18            4.8920    -2.7110    -0.4905 C.ar    
  19 C19            4.9009    -4.0906    -0.7057 C.ar    
  20 C20            6.1015    -4.7578    -0.8330 C.ar    
  21 C21            7.2951    -4.0631    -0.7474 C.ar    
  22 C22            7.2935    -2.6959    -0.5343 C.ar    
  23 C23            6.1000    -2.0153    -0.4114 C.ar    
  24 H24           -0.8155     1.9125     0.8330 H       
  25 H25           -0.6108     0.1767    -0.8972 H       
  26 H26            1.3370    -1.3132    -0.9457 H       
  27 H27            0.9301     2.1657     2.5459 H       
  28 H28            5.1688    -3.1545     1.1270 H       
  29 H29            6.6855    -3.3267     3.0469 H       
  30 H30            6.6151    -1.6566     4.8508 H       
  31 H31            5.0152     0.2077     4.7507 H       
  32 H32            3.9700    -4.6341    -0.7720 H       
  33 H33            6.1099    -5.8249    -0.9995 H       
  34 H34            8.2323    -4.5905    -0.8471 H       
  35 H35            8.2287    -2.1599    -0.4681 H       
  36 H36            6.1001    -0.9482    -0.2451 H       
@<TRIPOS>BOND
   1    1    2 ar
   2    1    6 ar
   3    1   24 1
   4    2    3 ar
   5    2   25 1
   6    3    4 ar
   7    3   26 1
   8    4    5 ar
   9    4    7 1
  10    5    6 ar
  11    5   10 1
  12    6   27 1
  13    7    8 1
  14    7   16 am
  15    8    9 ar
  16    8   11 ar
  17    9   10 1
  18    9   14 ar
  19   10   15 2
  20   11   12 ar
  21   11   28 1
  22   12   13 ar
  23   12   29 1
  24   13   14 ar
  25   13   30 1
  26   14   31 1
  27   16   17 2
  28   16   18 1
  29   18   19 ar
  30   18   23 ar
  31   19   20 ar
  32   19   32 1
  33   20   21 ar
  34   20   33 1
  35   21   22 ar
  36   21   34 1
  37   22   23 ar
  38   22   35 1
  39   23   36 1

#	End of record

