#	Name: ASD01030024
#	Creating user name:	WinNT
#	Creation time:	15. 06. 2019 18:58

#	Modifying user name:	WinNT
#	Modification time:	15. 06. 2019 18:58

#	Program:	/corina/corina34_cracker 3.40 0067  02.08.2006

@<TRIPOS>MOLECULE
ASD01030024
  34   35    0    0    0
SMALL
NO_CHARGES


@<TRIPOS>ATOM
   1 P1            -0.0180     1.4758     0.0102 P.3     
   2 O2             0.0021    -0.0041     0.0020 O.2     
   3 O3             1.4924     2.0330    -0.0013 O.3     
   4 O4            -0.7967     2.0091    -1.2942 O.3     
   5 O5            -0.7716     1.9950     1.3348 O.3     
   6 C6             2.4699     1.6523     0.9691 C.3     
   7 C7             3.7717     2.3507     0.6717 C.ar    
   8 C8             4.0360     3.5873     1.2300 C.ar    
   9 C9             5.2301     4.2280     0.9571 C.ar    
  10 C10            6.1602     3.6318     0.1262 C.ar    
  11 C11            5.8963     2.3947    -0.4314 C.ar    
  12 C12            4.7040     1.7521    -0.1551 C.ar    
  13 C13           -2.1262     1.6042    -1.6267 C.3     
  14 C14           -2.5545     2.2845    -2.9014 C.ar    
  15 C15           -2.3132     1.6813    -4.1216 C.ar    
  16 C16           -2.7060     2.3054    -5.2908 C.ar    
  17 C17           -3.3405     3.5324    -5.2399 C.ar    
  18 C18           -3.5826     4.1352    -4.0196 C.ar    
  19 C19           -3.1937     3.5091    -2.8502 C.ar    
  20 H20           -0.8222     2.9580     1.4066 H       
  21 H21            2.1244     1.9357     1.9633 H       
  22 H22            2.6193     0.5732     0.9303 H       
  23 H23            3.3093     4.0531     1.8792 H       
  24 H24            5.4363     5.1944     1.3928 H       
  25 H25            7.0928     4.1326    -0.0876 H       
  26 H26            6.6228     1.9291    -1.0809 H       
  27 H27            4.4994     0.7840    -0.5878 H       
  28 H28           -2.1529     0.5233    -1.7651 H       
  29 H29           -2.8037     1.8841    -0.8201 H       
  30 H30           -1.8174     0.7226    -4.1614 H       
  31 H31           -2.5168     1.8344    -6.2441 H       
  32 H32           -3.6468     4.0203    -6.1534 H       
  33 H33           -4.0780     5.0941    -3.9798 H       
  34 H34           -3.3861     3.9784    -1.8967 H       
@<TRIPOS>BOND
   1    1    2 2
   2    1    3 1
   3    1    4 1
   4    1    5 1
   5    3    6 1
   6    4   13 1
   7    5   20 1
   8    6    7 1
   9    6   21 1
  10    6   22 1
  11    7    8 ar
  12    7   12 ar
  13    8    9 ar
  14    8   23 1
  15    9   10 ar
  16    9   24 1
  17   10   11 ar
  18   10   25 1
  19   11   12 ar
  20   11   26 1
  21   12   27 1
  22   13   14 1
  23   13   28 1
  24   13   29 1
  25   14   15 ar
  26   14   19 ar
  27   15   16 ar
  28   15   30 1
  29   16   17 ar
  30   16   31 1
  31   17   18 ar
  32   17   32 1
  33   18   19 ar
  34   18   33 1
  35   19   34 1

#	End of record

