#	Name: ASD01140481
#	Creating user name:	WinNT
#	Creation time:	15. 06. 2019 19:00

#	Modifying user name:	WinNT
#	Modification time:	15. 06. 2019 19:00

#	Program:	/corina/corina34_cracker 3.40 0067  02.08.2006

@<TRIPOS>MOLECULE
ASD01140481
  40   42    0    0    0
SMALL
NO_CHARGES


@<TRIPOS>ATOM
   1 C1            -0.0291     0.9958    -0.2800 C.ar    
   2 C2             0.1699    -0.3614    -0.0983 C.ar    
   3 C3             1.4480    -0.8535     0.0866 C.ar    
   4 C4             2.5277     0.0102     0.0904 C.ar    
   5 C5             2.3296     1.3660    -0.0911 C.ar    
   6 C6             1.0516     1.8593    -0.2765 C.ar    
   7 C7             3.5069     2.3067    -0.0863 C.3     
   8 S8             4.1459     2.4821    -1.7706 S.3     
   9 C9             5.4752     3.6012    -1.4786 C.2     
  10 N10            6.2957     4.0643    -2.4793 N.am    
  11 N11            5.7606     4.0627    -0.3052 N.2     
  12 C12            6.9145     4.9686    -0.3843 C.3     
  13 C13            7.2872     4.9732    -1.8801 C.3     
  14 C14            6.2082     3.7415    -3.7849 C.2     
  15 C15            7.0833     4.4087    -4.7713 C.ar    
  16 O16            5.4095     2.9018    -4.1510 O.2     
  17 C17            7.7085     4.8243    -7.0529 C.ar    
  18 C18            6.8878     4.1983    -6.1373 C.ar    
  19 C19            8.1057     5.2568    -4.3412 C.ar    
  20 C20            8.9189     5.8763    -5.2672 C.ar    
  21 C21            8.7230     5.6592    -6.6198 C.ar    
  22 Cl22          -1.6336     1.6138    -0.5194 Cl      
  23 C23            7.4993     4.5980    -8.5280 C.3     
  24 H24           -0.6735    -1.0360    -0.1005 H       
  25 H25            1.6034    -1.9128     0.2284 H       
  26 H26            3.5263    -0.3747     0.2356 H       
  27 H27            0.8970     2.9187    -0.4187 H       
  28 H28            3.1916     3.2814     0.2861 H       
  29 H29            4.2889     1.9068     0.5592 H       
  30 H30            6.6359     5.9710    -0.0594 H       
  31 H31            7.7408     4.5876     0.2160 H       
  32 H32            8.2974     4.5914    -2.0279 H       
  33 H33            7.1896     5.9762    -2.2953 H       
  34 H34            6.0962     3.5468    -6.4767 H       
  35 H35            8.2592     5.4276    -3.2859 H       
  36 H36            9.7101     6.5325    -4.9358 H       
  37 H37            9.3626     6.1467    -7.3406 H       
  38 H38            6.8041     5.3431    -8.9149 H       
  39 H39            8.4532     4.6864    -9.0481 H       
  40 H40            7.0893     3.6008    -8.6881 H       
@<TRIPOS>BOND
   1    1    2 ar
   2    1    6 ar
   3    1   22 1
   4    2    3 ar
   5    2   24 1
   6    3    4 ar
   7    3   25 1
   8    4    5 ar
   9    4   26 1
  10    5    6 ar
  11    5    7 1
  12    6   27 1
  13    7    8 1
  14    7   28 1
  15    7   29 1
  16    8    9 1
  17    9   11 2
  18    9   10 1
  19   10   13 1
  20   10   14 am
  21   11   12 1
  22   12   13 1
  23   12   30 1
  24   12   31 1
  25   13   32 1
  26   13   33 1
  27   14   15 1
  28   14   16 2
  29   15   19 ar
  30   15   18 ar
  31   17   18 ar
  32   17   21 ar
  33   17   23 1
  34   18   34 1
  35   19   20 ar
  36   19   35 1
  37   20   21 ar
  38   20   36 1
  39   21   37 1
  40   23   38 1
  41   23   39 1
  42   23   40 1

#	End of record

