#	Name: ASD05513024
#	Creating user name:	WinNT
#	Creation time:	15. 06. 2019 21:01

#	Modifying user name:	WinNT
#	Modification time:	15. 06. 2019 21:01

#	Program:	/corina/corina34_cracker 3.40 0067  02.08.2006

@<TRIPOS>MOLECULE
ASD05513024
  34   36    0    0    0
SMALL
NO_CHARGES


@<TRIPOS>ATOM
   1 C1            -0.0067     1.4278     0.3281 C.2     
   2 C2             0.0021    -0.0041     0.0020 C.2     
   3 C3             1.1836    -0.6676    -0.1155 C.2     
   4 C4             2.3846    -0.5242     0.7324 C.ar    
   5 C5             3.3418    -1.4133     0.2212 C.ar    
   6 N6             2.8103    -2.0860    -0.8747 N.am    
   7 C7             1.5466    -1.7006    -1.1217 C.2     
   8 C8             2.6811     0.2697     1.8395 C.ar    
   9 C9             3.9251     0.1777     2.4339 C.ar    
  10 C10            4.8711    -0.6989     1.9306 C.ar    
  11 C11            4.5866    -1.4897     0.8340 C.ar    
  12 O12            0.8322    -2.1152    -2.0128 O.2     
  13 O13            1.0361     2.0536     0.3473 O.2     
  14 C14           -1.2834     2.1098     0.6270 C.ar    
  15 Cl15           1.4933     1.3688     2.4679 Cl      
  16 C16           -2.4834     1.3949     0.6001 C.ar    
  17 C17           -3.6730     2.0350     0.8801 C.ar    
  18 C18           -3.6822     3.3832     1.1878 C.ar    
  19 C19           -2.4944     4.1028     1.2166 C.ar    
  20 C20           -1.2942     3.4700     0.9431 C.ar    
  21 O21           -2.5101     5.4277     1.5188 O.3     
  22 C22           -3.7831     6.0149     1.7958 C.3     
  23 H23           -0.9296    -0.5303    -0.1445 H       
  24 H24            3.2895    -2.7521    -1.3920 H       
  25 H25            4.1598     0.7904     3.2918 H       
  26 H26            5.8415    -0.7653     2.4000 H       
  27 H27            5.3340    -2.1691     0.4518 H       
  28 H28           -2.4798     0.3420     0.3598 H       
  29 H29           -4.6001     1.4814     0.8587 H       
  30 H30           -4.6167     3.8787     1.4061 H       
  31 H31           -0.3701     4.0284     0.9652 H       
  32 H32           -4.2358     5.5139     2.6515 H       
  33 H33           -3.6537     7.0734     2.0212 H       
  34 H34           -4.4309     5.9051     0.9260 H       
@<TRIPOS>BOND
   1    1    2 1
   2    1   13 2
   3    1   14 1
   4    2    3 2
   5    2   23 1
   6    3    4 1
   7    3    7 1
   8    4    5 ar
   9    4    8 ar
  10    5    6 1
  11    5   11 ar
  12    6    7 am
  13    6   24 1
  14    7   12 2
  15    8    9 ar
  16    8   15 1
  17    9   10 ar
  18    9   25 1
  19   10   11 ar
  20   10   26 1
  21   11   27 1
  22   14   16 ar
  23   14   20 ar
  24   16   17 ar
  25   16   28 1
  26   17   18 ar
  27   17   29 1
  28   18   19 ar
  29   18   30 1
  30   19   20 ar
  31   19   21 1
  32   20   31 1
  33   21   22 1
  34   22   32 1
  35   22   33 1
  36   22   34 1

#	End of record

