#	Name: ASD00840884
#	Creating user name:	WinNT
#	Creation time:	15. 06. 2019 18:40

#	Modifying user name:	WinNT
#	Modification time:	15. 06. 2019 18:40

#	Program:	/corina/corina34_cracker 3.40 0067  02.08.2006

@<TRIPOS>MOLECULE
ASD00840884
  83   88    0    0    0
SMALL
NO_CHARGES


@<TRIPOS>ATOM
   1 F1             6.0844    -1.9607    -1.9989 F       
   2 N2             1.0876     1.4626    -0.7356 N.ar    
   3 C3             1.3446     0.1702    -0.8477 C.ar    
   4 C4             1.2540    -0.6679     0.2564 C.ar    
   5 C5             0.8903    -0.1329     1.4797 C.ar    
   6 C6             0.6289     1.2284     1.5556 C.ar    
   7 C7             0.7387     2.0017     0.4173 C.ar    
   8 C8             1.5472    -2.1402     0.1237 C.3     
   9 C9             1.2535    -2.8587     1.4234 C.2     
  10 C10            0.7320    -2.7467    -1.0201 C.3     
  11 C11           -0.7306    -2.4545    -0.8045 C.2     
  12 N12           -1.6518    -2.9731    -1.6406 N.am    
  13 O13           -1.0788    -1.7527     0.1213 O.2     
  14 C14           -3.0723    -2.6126    -1.5160 C.3     
  15 C15           -3.5842    -2.1685    -2.8904 C.3     
  16 N16           -3.2933    -3.2151    -3.8793 N.3     
  17 C17           -1.8463    -3.4191    -4.0294 C.3     
  18 C18           -1.2624    -3.9097    -2.7056 C.3     
  19 C19           -3.9183    -2.9059    -5.1723 C.3     
  20 C20           -3.4928    -3.9494    -6.2089 C.3     
  21 C21           -4.1945    -3.6575    -7.5372 C.3     
  22 N22           -5.6495    -3.6993    -7.3431 N.3     
  23 C23           -6.0873    -2.6741    -6.3871 C.3     
  24 C24           -5.4421    -2.9367    -5.0245 C.3     
  25 C25           -6.3556    -3.5607    -8.6238 C.3     
  26 O26            0.1775    -2.9330     1.9782 O.2     
  27 N27            2.4086    -3.3989     1.8468 N.am    
  28 C28            3.0251    -2.3679    -0.0968 C.ar    
  29 C29            3.4678    -3.1296     0.9775 C.ar    
  30 C30            3.8938    -1.9762    -1.0905 C.ar    
  31 C31            5.2286    -2.3424    -1.0257 C.ar    
  32 C32            5.6826    -3.1026     0.0415 C.ar    
  33 C33            4.8104    -3.4954     1.0385 C.ar    
  34 F34            6.9836    -3.4607     0.1066 F       
  35 C35            2.2622    -5.9682     2.8225 C.ar    
  36 C36            3.3126    -6.7801     2.4374 C.ar    
  37 C37            0.9798    -6.4804     2.8859 C.ar    
  38 C38            0.7478    -7.8046     2.5643 C.ar    
  39 C39            1.7981    -8.6165     2.1788 C.ar    
  40 C40            3.0805    -8.1043     2.1153 C.ar    
  41 H41            1.6169    -9.6511     1.9275 H       
  42 H42            4.3145    -6.3799     2.3878 H       
  43 O43            1.6997    -0.3421    -2.0528 O.3     
  44 C44            2.2072    -0.1707    -4.4094 C.3     
  45 C45            1.6672     0.5472    -3.1709 C.3     
  46 S46            2.5590    -4.2821     3.2395 S.o2    
  47 O47            3.9249    -4.1980     3.6225 O.2     
  48 O48            1.4888    -3.8835     4.0850 O.2     
  49 H49            0.8114    -0.7601     2.3553 H       
  50 H50            0.3424     1.6776     2.4950 H       
  51 H51            0.5368     3.0613     0.4710 H       
  52 H52            1.0538    -2.3116    -1.9662 H       
  53 H53            0.8872    -3.8253    -1.0448 H       
  54 H54           -3.6411    -3.4778    -1.1755 H       
  55 H55           -3.1815    -1.7954    -0.8030 H       
  56 H56           -4.6604    -2.0031    -2.8416 H       
  57 H57           -3.0865    -1.2437    -3.1824 H       
  58 H58           -1.6623    -4.1607    -4.8068 H       
  59 H59           -1.3729    -2.4769    -4.3056 H       
  60 H60           -0.1757    -3.9527    -2.7783 H       
  61 H61           -1.6563    -4.8999    -2.4763 H       
  62 H62           -3.6033    -1.9158    -5.5017 H       
  63 H63           -2.4129    -3.9030    -6.3499 H       
  64 H64           -3.7724    -4.9436    -5.8604 H       
  65 H65           -3.9036    -2.6688    -7.8920 H       
  66 H66           -3.9047    -4.4072    -8.2735 H       
  67 H67           -5.7875    -1.6900    -6.7473 H       
  68 H68           -7.1722    -2.7095    -6.2881 H       
  69 H69           -5.7524    -3.9149    -4.6573 H       
  70 H70           -5.7549    -2.1667    -4.3193 H       
  71 H71           -6.0680    -4.3761    -9.2874 H       
  72 H72           -7.4313    -3.5949    -8.4511 H       
  73 H73           -6.0915    -2.6081    -9.0831 H       
  74 H74            3.5353    -1.3845    -1.9198 H       
  75 H75            5.1706    -4.0871     1.8671 H       
  76 H76            0.1593    -5.8461     3.1871 H       
  77 H77           -0.2539    -8.2050     2.6145 H       
  78 H78            3.9011    -8.7387     1.8145 H       
  79 H79            3.2014    -0.5637    -4.1969 H       
  80 H80            1.5406    -0.9918    -4.6730 H       
  81 H81            2.2643     0.5320    -5.2407 H       
  82 H82            0.6403     0.8640    -3.3534 H       
  83 H83            2.2845     1.4201    -2.9589 H       
@<TRIPOS>BOND
   1    1   31 1
   2    2    3 ar
   3    2    7 ar
   4    3    4 ar
   5    3   43 1
   6    4    5 ar
   7    4    8 1
   8    5    6 ar
   9    5   49 1
  10    6    7 ar
  11    6   50 1
  12    7   51 1
  13    8    9 1
  14    8   10 1
  15    8   28 1
  16    9   26 2
  17    9   27 am
  18   10   11 1
  19   10   52 1
  20   10   53 1
  21   11   12 am
  22   11   13 2
  23   12   14 1
  24   12   18 1
  25   14   15 1
  26   14   54 1
  27   14   55 1
  28   15   16 1
  29   15   56 1
  30   15   57 1
  31   16   17 1
  32   16   19 1
  33   17   18 1
  34   17   58 1
  35   17   59 1
  36   18   60 1
  37   18   61 1
  38   19   20 1
  39   19   24 1
  40   19   62 1
  41   20   21 1
  42   20   63 1
  43   20   64 1
  44   21   22 1
  45   21   65 1
  46   21   66 1
  47   22   23 1
  48   22   25 1
  49   23   24 1
  50   23   67 1
  51   23   68 1
  52   24   69 1
  53   24   70 1
  54   25   71 1
  55   25   72 1
  56   25   73 1
  57   27   46 am
  58   27   29 1
  59   28   29 ar
  60   28   30 ar
  61   29   33 ar
  62   30   31 ar
  63   30   74 1
  64   31   32 ar
  65   32   33 ar
  66   32   34 1
  67   33   75 1
  68   35   36 ar
  69   35   37 ar
  70   35   46 1
  71   36   42 1
  72   36   40 ar
  73   37   38 ar
  74   37   76 1
  75   38   39 ar
  76   38   77 1
  77   39   40 ar
  78   39   41 1
  79   40   78 1
  80   43   45 1
  81   44   45 1
  82   44   79 1
  83   44   80 1
  84   44   81 1
  85   45   82 1
  86   45   83 1
  87   46   47 2
  88   46   48 2

#	End of record

