#	Name: ASD08520002
#	Creating user name:	WinNT
#	Creation time:	15. 06. 2019 21:19

#	Modifying user name:	WinNT
#	Modification time:	15. 06. 2019 21:19

#	Program:	/corina/corina34_cracker 3.40 0067  02.08.2006

@<TRIPOS>MOLECULE
ASD08520002
  64   68    0    0    0
SMALL
NO_CHARGES


@<TRIPOS>ATOM
   1 C1            -0.0169     1.3964     0.0097 C.ar    
   2 C2             0.0021    -0.0041     0.0020 C.ar    
   3 C3            -1.1691    -0.7006     0.0094 C.ar    
   4 C4            -2.3791     0.0243     0.0248 C.ar    
   5 C5            -2.3271     1.4389     0.0320 C.ar    
   6 N6            -1.1481     2.0678     0.0296 N.ar    
   7 N7            -3.5578    -0.6026     0.0322 N.ar    
   8 C8            -4.6853     0.0663     0.0461 C.ar    
   9 C9            -4.7079     1.4595     0.0534 C.ar    
  10 C10           -3.5365     2.1610     0.0474 C.ar    
  11 O11            1.1567     2.0752     0.0022 O.3     
  12 C12            1.0808     3.5022     0.0105 C.3     
  13 C13           -3.5375     3.6680     0.0556 C.3     
  14 C14           -3.4241     4.1859    -1.3796 C.3     
  15 C15           -3.4251     5.7158    -1.3713 C.3     
  16 C16           -3.4375     6.2336    -2.8110 C.3     
  17 C17           -3.4385     7.7636    -2.8027 C.3     
  18 C18           -4.6820     8.2688    -2.0682 C.3     
  19 C19           -4.6696     7.7510    -0.6286 C.3     
  20 C20           -4.6686     6.2211    -0.6369 C.3     
  21 O21           -2.2530     6.1893    -0.7049 O.3     
  22 N22           -4.6829     9.7378    -2.0603 N.3     
  23 C23           -6.0484    10.2627    -1.9265 C.3     
  24 C24           -6.0094    11.7692    -1.9221 C.ar    
  25 C25           -6.1058    12.4652    -3.1123 C.ar    
  26 C26           -6.0689    13.8471    -3.1126 C.ar    
  27 C27           -5.9352    14.5387    -1.9182 C.ar    
  28 C28           -5.8415    13.8387    -0.7208 C.ar    
  29 C29           -5.8828    12.4527    -0.7272 C.ar    
  30 O30           -5.8926    15.8990    -1.9348 O.3     
  31 C31           -6.1337    16.5656    -0.6909 C.3     
  32 C32           -5.3064    15.8678     0.3971 C.3     
  33 O33           -5.7176    14.4979     0.4635 O.3     
  34 H34            0.9444    -0.5316    -0.0101 H       
  35 H35           -1.1709    -1.7805     0.0033 H       
  36 H36           -5.6194    -0.4758     0.0517 H       
  37 H37           -5.6518     1.9843     0.0646 H       
  38 H38            2.0877     3.9196     0.0032 H       
  39 H39            0.5399     3.8425    -0.8725 H       
  40 H40            0.5569     3.8329     0.9074 H       
  41 H41           -4.4654     4.0283     0.4997 H       
  42 H42           -2.6910     4.0287     0.6399 H       
  43 H43           -2.4962     3.8255    -1.8237 H       
  44 H44           -4.2706     3.8251    -1.9640 H       
  45 H45           -2.5516     5.8737    -3.3342 H       
  46 H46           -4.3315     5.8725    -3.3193 H       
  47 H47           -2.5445     8.1248    -2.2943 H       
  48 H48           -3.4473     8.1325    -3.8283 H       
  49 H49           -5.5760     7.9077    -2.5766 H       
  50 H50           -3.7756     8.1122    -0.1203 H       
  51 H51           -5.5555     8.1110    -0.1054 H       
  52 H52           -5.5626     5.8599    -1.1452 H       
  53 H53           -4.6598     5.8522     0.3888 H       
  54 H54           -2.1790     5.8990     0.2145 H       
  55 H55           -4.0848    10.0959    -1.3308 H       
  56 H56           -6.6541     9.9173    -2.7643 H       
  57 H57           -6.4842     9.9078    -0.9925 H       
  58 H58           -6.2099    11.9285    -4.0437 H       
  59 H59           -6.1440    14.3886    -4.0440 H       
  60 H60           -5.8086    11.9065     0.2015 H       
  61 H61           -5.8317    17.6100    -0.7690 H       
  62 H62           -7.1932    16.5065    -0.4415 H       
  63 H63           -4.2474    15.9219     0.1449 H       
  64 H64           -5.4811    16.3510     1.3584 H       
@<TRIPOS>BOND
   1    1    2 ar
   2    1   11 1
   3    1    6 ar
   4    2    3 ar
   5    2   34 1
   6    3    4 ar
   7    3   35 1
   8    4    5 ar
   9    4    7 ar
  10    5    6 ar
  11    5   10 ar
  12    7    8 ar
  13    8    9 ar
  14    8   36 1
  15    9   10 ar
  16    9   37 1
  17   10   13 1
  18   11   12 1
  19   12   38 1
  20   12   39 1
  21   12   40 1
  22   13   14 1
  23   13   41 1
  24   13   42 1
  25   14   15 1
  26   14   43 1
  27   14   44 1
  28   15   16 1
  29   15   21 1
  30   15   20 1
  31   16   17 1
  32   16   45 1
  33   16   46 1
  34   17   18 1
  35   17   47 1
  36   17   48 1
  37   18   19 1
  38   18   22 1
  39   18   49 1
  40   19   20 1
  41   19   50 1
  42   19   51 1
  43   20   52 1
  44   20   53 1
  45   21   54 1
  46   22   23 1
  47   22   55 1
  48   23   24 1
  49   23   56 1
  50   23   57 1
  51   24   25 ar
  52   24   29 ar
  53   25   26 ar
  54   25   58 1
  55   26   27 ar
  56   26   59 1
  57   27   28 ar
  58   27   30 1
  59   28   29 ar
  60   28   33 1
  61   29   60 1
  62   30   31 1
  63   31   32 1
  64   31   61 1
  65   31   62 1
  66   32   33 1
  67   32   63 1
  68   32   64 1

#	End of record

