#	Name: ASD01911506
#	Creating user name:	WinNT
#	Creation time:	15. 06. 2019 19:57

#	Modifying user name:	WinNT
#	Modification time:	15. 06. 2019 19:57

#	Program:	/corina/corina34_cracker 3.40 0067  02.08.2006

@<TRIPOS>MOLECULE
ASD01911506
  27   27    0    0    0
SMALL
NO_CHARGES


@<TRIPOS>ATOM
   1 C1            -0.0181     1.5035     0.0014 C.2     
   2 C2             0.0032    -0.0033    -0.0070 C.3     
   3 C3             1.4526    -0.4927    -0.0344 C.3     
   4 O4             1.0234     2.1248    -0.0131 O.2     
   5 N5            -1.1946     2.1607     0.0195 N.am    
   6 C6            -0.6892    -0.5302     1.2515 C.3     
   7 C7            -0.7320    -0.5169    -1.2466 C.3     
   8 Cl8            1.4781    -2.2955    -0.0445 Cl      
   9 C9            -1.2152     3.5504     0.1324 C.ar    
  10 C10           -2.4237     4.2311     0.0365 C.ar    
  11 C11           -2.4305     5.6100     0.1502 C.ar    
  12 C12           -1.2223     6.2636     0.3570 C.ar    
  13 C13           -0.0591     5.5231     0.4422 C.ar    
  14 N14           -0.0850     4.2084     0.3352 N.ar    
  15 Br15          -1.1703     8.1469     0.5195 Br      
  16 H16            1.9459    -0.1174    -0.9310 H       
  17 H17            1.9764    -0.1269     0.8487 H       
  18 H18           -2.0270     1.6670    -0.0461 H       
  19 H19           -1.7218    -0.1815     1.2711 H       
  20 H20           -0.6738    -1.6201     1.2454 H       
  21 H21           -0.1654    -0.1643     2.1346 H       
  22 H22           -0.2387    -0.1415    -2.1431 H       
  23 H23           -0.7166    -1.6067    -1.2526 H       
  24 H24           -1.7645    -0.1682    -1.2270 H       
  25 H25           -3.3448     3.6908    -0.1250 H       
  26 H26           -3.3540     6.1655     0.0795 H       
  27 H27            0.8828     6.0265     0.6029 H       
@<TRIPOS>BOND
   1    1    2 1
   2    1    4 2
   3    1    5 am
   4    2    3 1
   5    2    6 1
   6    2    7 1
   7    3    8 1
   8    3   16 1
   9    3   17 1
  10    5    9 1
  11    5   18 1
  12    6   19 1
  13    6   20 1
  14    6   21 1
  15    7   22 1
  16    7   23 1
  17    7   24 1
  18    9   10 ar
  19    9   14 ar
  20   10   11 ar
  21   10   25 1
  22   11   12 ar
  23   11   26 1
  24   12   13 ar
  25   12   15 1
  26   13   14 ar
  27   13   27 1

#	End of record

