#	Name: ASD02198191
#	Creating user name:	WinNT
#	Creation time:	15. 06. 2019 20:19

#	Modifying user name:	WinNT
#	Modification time:	15. 06. 2019 20:19

#	Program:	/corina/corina34_cracker 3.40 0067  02.08.2006

@<TRIPOS>MOLECULE
ASD02198191
  53   57    0    0    0
SMALL
NO_CHARGES


@<TRIPOS>ATOM
   1 C1            -0.2050     1.3382     0.4624 C.2     
   2 C2            -0.1539    -0.0291     0.2854 C.2     
   3 C3            -1.1790    -0.7676    -0.3887 C.1     
   4 S4             1.1706     1.8948     1.3018 S.3     
   5 C5             1.8342     0.2732     1.4232 C.2     
   6 C6             0.9842    -0.6264     0.8211 C.2     
   7 C7             3.0539    -0.0572     2.0438 C.2     
   8 C8             3.8802     1.0009     2.6573 C.2     
   9 O9             3.4278    -1.2180     2.0746 O.2     
  10 N10            1.2350    -1.9876     0.7555 N.pl3   
  11 N11           -1.2255     2.1445     0.0166 N.pl3   
  12 N12           -1.9922    -1.3535    -0.9235 N.1     
  13 C13           -1.1190     3.5351     0.1301 C.ar    
  14 O14            3.6022     2.3172     2.7031 O.3     
  15 N15            4.4687     2.9382     3.2727 N.2     
  16 C16            5.4356     2.1571     3.6859 C.2     
  17 C17            5.0772     0.8383     3.2970 C.2     
  18 C18            6.6593     2.5673     4.4193 C.ar    
  19 C19            6.8681     3.9077     4.7362 C.ar    
  20 C20            7.6003     1.6124     4.7983 C.ar    
  21 C21            8.7361     1.9991     5.4804 C.ar    
  22 C22            8.9410     3.3321     5.7879 C.ar    
  23 C23            8.0074     4.2836     5.4187 C.ar    
  24 C24            0.1012     4.1592    -0.0957 C.ar    
  25 C25            0.2054     5.5315     0.0160 C.ar    
  26 C26           -0.9083     6.2870     0.3537 C.ar    
  27 C27           -2.1275     5.6642     0.5798 C.ar    
  28 C28           -2.2346     4.2927     0.4629 C.ar    
  29 O29           -0.8049     7.6382     0.4634 O.3     
  30 C30           -0.8164     8.1797     1.7096 C.ar    
  31 C31           -0.8103     7.3553     2.8258 C.ar    
  32 C32           -0.8286     9.5581     1.8683 C.ar    
  33 C33           -0.8398    10.1061     3.1363 C.ar    
  34 C34           -0.8385     9.2822     4.2468 C.ar    
  35 C35           -0.8216     7.9084     4.0915 C.ar    
  36 H36            2.0449    -2.3509     1.1466 H       
  37 H37            0.6007    -2.5771     0.3185 H       
  38 H38           -2.0194     1.7494    -0.3765 H       
  39 H39            5.6255    -0.0774     3.4623 H       
  40 H40            6.1400     4.6515     4.4481 H       
  41 H41            7.4411     0.5713     4.5590 H       
  42 H42            9.4661     1.2596     5.7750 H       
  43 H43            9.8311     3.6304     6.3218 H       
  44 H44            8.1724     5.3231     5.6609 H       
  45 H45            0.9682     3.5713    -0.3582 H       
  46 H46            1.1541     6.0169    -0.1592 H       
  47 H47           -2.9937     6.2529     0.8433 H       
  48 H48           -3.1836     3.8081     0.6389 H       
  49 H49           -0.7971     6.2821     2.7050 H       
  50 H50           -0.8289    10.2020     1.0013 H       
  51 H51           -0.8493    11.1789     3.2604 H       
  52 H52           -0.8466     9.7127     5.2373 H       
  53 H53           -0.8206     7.2671     4.9605 H       
@<TRIPOS>BOND
   1    1    2 2
   2    1    4 1
   3    1   11 1
   4    2    3 1
   5    2    6 1
   6    3   12 3
   7    4    5 1
   8    5    6 2
   9    5    7 1
  10    6   10 1
  11    7    8 1
  12    7    9 2
  13    8   14 1
  14    8   17 2
  15   10   36 1
  16   10   37 1
  17   11   13 1
  18   11   38 1
  19   13   24 ar
  20   13   28 ar
  21   14   15 1
  22   15   16 2
  23   16   17 1
  24   16   18 1
  25   17   39 1
  26   18   19 ar
  27   18   20 ar
  28   19   23 ar
  29   19   40 1
  30   20   21 ar
  31   20   41 1
  32   21   22 ar
  33   21   42 1
  34   22   23 ar
  35   22   43 1
  36   23   44 1
  37   24   25 ar
  38   24   45 1
  39   25   26 ar
  40   25   46 1
  41   26   27 ar
  42   26   29 1
  43   27   28 ar
  44   27   47 1
  45   28   48 1
  46   29   30 1
  47   30   31 ar
  48   30   32 ar
  49   31   35 ar
  50   31   49 1
  51   32   33 ar
  52   32   50 1
  53   33   34 ar
  54   33   51 1
  55   34   35 ar
  56   34   52 1
  57   35   53 1

#	End of record

