#	Name: ASD01120379
#	Creating user name:	WinNT
#	Creation time:	15. 06. 2019 18:59

#	Modifying user name:	WinNT
#	Modification time:	15. 06. 2019 18:59

#	Program:	/corina/corina34_cracker 3.40 0067  02.08.2006

@<TRIPOS>MOLECULE
ASD01120379
  30   32    0    0    0
SMALL
NO_CHARGES


@<TRIPOS>ATOM
   1 P1            -0.0180     1.4758     0.0102 P.3     
   2 O2             0.0021    -0.0041     0.0020 O.2     
   3 O3             1.4924     2.0330    -0.0013 O.3     
   4 O4            -0.7967     2.0091    -1.2942 O.3     
   5 C5            -0.8713     2.0637     1.5100 C.3     
   6 O6            -2.2119     1.5691     1.5202 O.3     
   7 C7            -2.3828     0.2576     1.8279 C.ar    
   8 C8            -3.6674    -0.2973     1.8575 C.ar    
   9 C9            -3.8297    -1.6386     2.1728 C.ar    
  10 C10           -2.7323    -2.4240     2.4569 C.ar    
  11 C11           -1.4611    -1.8744     2.4282 C.ar    
  12 C12           -1.2854    -0.5418     2.1092 C.ar    
  13 C13           -5.3062    -1.9360     2.1233 C.3     
  14 C14           -5.9761    -0.6329     1.7485 C.2     
  15 C15           -5.0036     0.3346     1.5920 C.2     
  16 S16           -7.3963    -0.0334     1.4839 S.o     
  17 C17           -6.8487     1.6694     1.1120 C.3     
  18 N18           -5.3931     1.5602     1.2594 N.2     
  19 H19            2.0070     1.7589    -0.7727 H       
  20 H20           -0.8486     2.9728    -1.3546 H       
  21 H21           -0.3441     1.7026     2.3931 H       
  22 H22           -0.8861     3.1536     1.5160 H       
  23 H23           -2.8640    -3.4675     2.7021 H       
  24 H24           -0.6033    -2.4916     2.6511 H       
  25 H25           -0.2913    -0.1205     2.0837 H       
  26 H26           -5.5118    -2.6953     1.3688 H       
  27 H27           -5.6553    -2.2711     3.1000 H       
  28 H28           -7.7099    -0.5221     0.2707 H       
  29 H29           -7.1169     1.9511     0.0938 H       
  30 H30           -7.2608     2.3769     1.8316 H       
@<TRIPOS>BOND
   1    1    2 2
   2    1    3 1
   3    1    4 1
   4    1    5 1
   5    3   19 1
   6    4   20 1
   7    5    6 1
   8    5   21 1
   9    5   22 1
  10    6    7 1
  11    7    8 ar
  12    7   12 ar
  13    8    9 ar
  14    8   15 1
  15    9   10 ar
  16    9   13 1
  17   10   11 ar
  18   10   23 1
  19   11   12 ar
  20   11   24 1
  21   12   25 1
  22   13   14 1
  23   13   26 1
  24   13   27 1
  25   14   15 1
  26   14   16 2
  27   15   18 2
  28   16   17 1
  29   16   28 1
  30   17   18 1
  31   17   29 1
  32   17   30 1

#	End of record

