#	Name: ASD01815745
#	Creating user name:	WinNT
#	Creation time:	15. 06. 2019 19:33

#	Modifying user name:	WinNT
#	Modification time:	15. 06. 2019 19:33

#	Program:	/corina/corina34_cracker 3.40 0067  02.08.2006

@<TRIPOS>MOLECULE
ASD01815745
  63   68    0    0    0
SMALL
NO_CHARGES


@<TRIPOS>ATOM
   1 C1            -0.5949     0.6526     0.3212 C.ar    
   2 C2            -0.3228    -0.7110     0.2801 C.ar    
   3 C3             0.9571    -1.1682     0.1756 C.ar    
   4 C4             2.0198    -0.2542     0.1082 C.ar    
   5 C5             1.7389     1.1333     0.1504 C.ar    
   6 C6             0.4142     1.5687     0.2579 C.ar    
   7 C7             3.3545    -0.6977    -0.0007 C.ar    
   8 C8             4.3819     0.1824    -0.0664 C.ar    
   9 C9             4.1582     1.5675    -0.0287 C.ar    
  10 C10            2.8511     2.0764     0.0796 C.ar    
  11 C11            5.2643     2.5308    -0.1002 C.2     
  12 N12            4.9494     3.8462    -0.0574 N.am    
  13 C13            3.6561     4.2415     0.0482 C.2     
  14 N14            2.6607     3.4060     0.1126 N.2     
  15 O15            6.4206     2.1601    -0.1940 O.2     
  16 C16            6.0134     4.8510    -0.1251 C.3     
  17 C17            5.9884     5.7100     1.1429 C.3     
  18 C18            7.0512     6.8059     1.0285 C.3     
  19 O19            6.8032     7.5879    -0.1416 O.3     
  20 C20            6.8608     6.8465    -1.3619 C.3     
  21 C21            5.7904     5.7522    -1.3435 C.3     
  22 C22            3.6422    -2.1763    -0.0442 C.3     
  23 C23            3.5085    -2.6726    -1.4608 C.ar    
  24 C24            4.6077    -2.6684    -2.2998 C.ar    
  25 C25            4.4888    -3.1226    -3.5986 C.ar    
  26 C26            3.2631    -3.5839    -4.0619 C.ar    
  27 C27            2.1609    -3.5867    -3.2164 C.ar    
  28 C28            2.2883    -3.1364    -1.9170 C.ar    
  29 O29            6.2675     4.8910     2.2801 O.3     
  30 N30            3.1391    -4.0435    -5.3750 N.3     
  31 C31            1.8270    -3.6796    -5.9405 C.3     
  32 C32            2.0922    -2.8686    -7.2263 C.3     
  33 C33            3.5277    -3.3028    -7.6235 C.3     
  34 C34            4.1972    -3.4754    -6.2373 C.3     
  35 H35           -1.6178     0.9903     0.3998 H       
  36 H36           -1.1376    -1.4180     0.3321 H       
  37 H37            1.1526    -2.2299     0.1452 H       
  38 H38            0.1911     2.6249     0.2904 H       
  39 H39            5.3928    -0.1888    -0.1490 H       
  40 H40            3.4425     5.2996     0.0803 H       
  41 H41            6.9802     4.3550    -0.2105 H       
  42 H42            5.0049     6.1666     1.2542 H       
  43 H43            7.0091     7.4465     1.9094 H       
  44 H44            8.0383     6.3491     0.9579 H       
  45 H45            6.6816     7.5162    -2.2030 H       
  46 H46            7.8455     6.3901    -1.4638 H       
  47 H47            5.8617     5.1576    -2.2543 H       
  48 H48            4.8029     6.2096    -1.2824 H       
  49 H49            4.6562    -2.3598     0.3109 H       
  50 H50            2.9328    -2.7034     0.5939 H       
  51 H51            5.5603    -2.3093    -1.9391 H       
  52 H52            5.3475    -3.1187    -4.2535 H       
  53 H53            1.2066    -3.9447    -3.5735 H       
  54 H54            1.4318    -3.1387    -1.2591 H       
  55 H55            6.2679     5.3707     3.1197 H       
  56 H56            1.2637    -4.5814    -6.1805 H       
  57 H57            1.2712    -3.0716    -5.2266 H       
  58 H58            1.3789    -3.1372    -8.0055 H       
  59 H59            2.0561    -1.7986    -7.0215 H       
  60 H60            3.5132    -4.2457    -8.1702 H       
  61 H61            4.0247    -2.5249    -8.2031 H       
  62 H62            4.5240    -2.5099    -5.8509 H       
  63 H63            5.0404    -4.1627    -6.3061 H       
@<TRIPOS>BOND
   1    1    2 ar
   2    1    6 ar
   3    1   35 1
   4    2    3 ar
   5    2   36 1
   6    3    4 ar
   7    3   37 1
   8    4    5 ar
   9    4    7 ar
  10    5    6 ar
  11    5   10 ar
  12    6   38 1
  13    7    8 ar
  14    7   22 1
  15    8    9 ar
  16    8   39 1
  17    9   10 ar
  18    9   11 1
  19   10   14 1
  20   11   12 am
  21   11   15 2
  22   12   13 1
  23   12   16 1
  24   13   14 2
  25   13   40 1
  26   16   17 1
  27   16   21 1
  28   16   41 1
  29   17   18 1
  30   17   29 1
  31   17   42 1
  32   18   19 1
  33   18   43 1
  34   18   44 1
  35   19   20 1
  36   20   21 1
  37   20   45 1
  38   20   46 1
  39   21   47 1
  40   21   48 1
  41   22   23 1
  42   22   49 1
  43   22   50 1
  44   23   24 ar
  45   23   28 ar
  46   24   25 ar
  47   24   51 1
  48   25   26 ar
  49   25   52 1
  50   26   27 ar
  51   26   30 1
  52   27   28 ar
  53   27   53 1
  54   28   54 1
  55   29   55 1
  56   30   31 1
  57   30   34 1
  58   31   32 1
  59   31   56 1
  60   31   57 1
  61   32   33 1
  62   32   58 1
  63   32   59 1
  64   33   34 1
  65   33   60 1
  66   33   61 1
  67   34   62 1
  68   34   63 1

#	End of record

