#	Name: ASD08070466
#	Creating user name:	WinNT
#	Creation time:	15. 06. 2019 21:14

#	Modifying user name:	WinNT
#	Modification time:	15. 06. 2019 21:14

#	Program:	/corina/corina34_cracker 3.40 0067  02.08.2006

@<TRIPOS>MOLECULE
ASD08070466
  41   42    0    0    0
SMALL
NO_CHARGES


@<TRIPOS>ATOM
   1 O1            -0.0162     1.3451     0.0094 O.3     
   2 C2             0.0021    -0.0041     0.0020 C.2     
   3 C3             1.2864    -0.4454    -0.0126 C.2     
   4 C4             2.1264     0.7519    -0.0142 C.ar    
   5 C5             1.2370     1.8423     0.0001 C.ar    
   6 C6             3.5058     0.9717    -0.0258 C.ar    
   7 C7             3.9894     2.2651    -0.0231 C.ar    
   8 C8             3.1072     3.3423    -0.0084 C.ar    
   9 C9             1.7452     3.1358     0.0029 C.ar    
  10 C10           -1.1883    -0.8660     0.0095 C.2     
  11 O11           -1.0632    -2.0761     0.0022 O.2     
  12 N12           -2.4186    -0.3159     0.0245 N.am    
  13 O13            5.3308     2.4874    -0.0343 O.3     
  14 C14            5.7626     3.8496    -0.0307 C.3     
  15 C15           -2.7981    -2.4518     2.0222 C.3     
  16 C16           -3.9303    -1.5832     1.4703 C.3     
  17 C17           -3.6052    -1.1751     0.0320 C.3     
  18 C18           -4.7910    -0.4122    -0.5621 C.3     
  19 C19           -4.5173    -0.1128    -2.0373 C.3     
  20 C20           -5.7031     0.6500    -2.6314 C.3     
  21 H21            1.6199    -1.4726    -0.0213 H       
  22 H22            4.1895     0.1357    -0.0365 H       
  23 H23            3.4948     4.3504    -0.0060 H       
  24 H24            1.0717     3.9800     0.0136 H       
  25 H25           -2.5184     0.6490     0.0303 H       
  26 H26            6.8520     3.8854    -0.0407 H       
  27 H27            5.3744     4.3562    -0.9143 H       
  28 H28            5.3910     4.3462     0.8655 H       
  29 H29           -2.6920    -3.3448     1.4063 H       
  30 H30           -1.8661    -1.8868     2.0067 H       
  31 H31           -3.0297    -2.7426     3.0469 H       
  32 H32           -4.8623    -2.1482     1.4858 H       
  33 H33           -4.0364    -0.6902     2.0862 H       
  34 H34           -3.4117    -2.0670    -0.5639 H       
  35 H35           -5.6929    -1.0181    -0.4755 H       
  36 H36           -4.9287     0.5238    -0.0208 H       
  37 H37           -3.6154     0.4931    -2.1239 H       
  38 H38           -4.3796    -1.0489    -2.5786 H       
  39 H39           -5.5082     0.8633    -3.6824 H       
  40 H40           -6.6051     0.0441    -2.5448 H       
  41 H41           -5.8409     1.5861    -2.0902 H       
@<TRIPOS>BOND
   1    1    2 1
   2    1    5 1
   3    2    3 2
   4    2   10 1
   5    3    4 1
   6    3   21 1
   7    4    5 ar
   8    4    6 ar
   9    5    9 ar
  10    6    7 ar
  11    6   22 1
  12    7    8 ar
  13    7   13 1
  14    8    9 ar
  15    8   23 1
  16    9   24 1
  17   10   11 2
  18   10   12 am
  19   12   17 1
  20   12   25 1
  21   13   14 1
  22   14   26 1
  23   14   27 1
  24   14   28 1
  25   15   16 1
  26   15   29 1
  27   15   30 1
  28   15   31 1
  29   16   17 1
  30   16   32 1
  31   16   33 1
  32   17   18 1
  33   17   34 1
  34   18   19 1
  35   18   35 1
  36   18   36 1
  37   19   20 1
  38   19   37 1
  39   19   38 1
  40   20   39 1
  41   20   40 1
  42   20   41 1

#	End of record

