#	Name: ASD05130049
#	Creating user name:	WinNT
#	Creation time:	15. 06. 2019 20:56

#	Modifying user name:	WinNT
#	Modification time:	15. 06. 2019 20:56

#	Program:	/corina/corina34_cracker 3.40 0067  02.08.2006

@<TRIPOS>MOLECULE
ASD05130049
  54   57    0    0    0
SMALL
NO_CHARGES


@<TRIPOS>ATOM
   1 N1             0.0626     1.2257     0.0436 N.am    
   2 C2             0.0647     0.0364     0.6776 C.2     
   3 O3             1.1062    -0.4224     1.1059 O.2     
   4 N4            -1.0875    -0.6445     0.8369 N.am    
   5 C5            -1.0695    -1.9326     1.3867 C.ar    
   6 C6            -2.2017    -2.4370     2.0177 C.ar    
   7 C7            -2.1796    -3.7091     2.5591 C.ar    
   8 C8            -1.0335    -4.4784     2.4732 C.ar    
   9 C9             0.0928    -3.9789     1.8465 C.ar    
  10 C10            0.0761    -2.7106     1.2981 C.ar    
  11 F11           -3.3210    -1.6851     2.1019 F       
  12 C12            1.2434     1.9750    -0.0442 C.ar    
  13 C13            1.1809     3.3577    -0.1899 C.ar    
  14 C14            2.3447     4.1010    -0.2769 C.ar    
  15 C15            3.5747     3.4744    -0.2197 C.ar    
  16 C16            3.6454     2.0884    -0.0737 C.ar    
  17 C17            2.4728     1.3402     0.0197 C.ar    
  18 F18           -0.0191     3.9757    -0.2468 F       
  19 N19            6.9768     0.8840     1.2582 N.am    
  20 C20            5.7782     1.4971     1.2017 C.2     
  21 C21            4.9634     1.4143    -0.0127 C.2     
  22 C22            5.4272     0.7100    -1.0901 C.2     
  23 C23            6.6890     0.0749    -1.0062 C.ar    
  24 C24            7.2027    -0.6558    -2.0847 C.ar    
  25 N25            8.3774    -1.2396    -1.9904 N.ar    
  26 C26            9.1184    -1.1659    -0.8899 C.ar    
  27 C27            8.6850    -0.4624     0.2250 C.ar    
  28 C28            7.4502     0.1739     0.1790 C.ar    
  29 O29            5.3705     2.1224     2.1644 O.2     
  30 N30           10.3491    -1.8052    -0.8546 N.pl3   
  31 C31           11.1777    -1.7332     0.3515 C.3     
  32 C32            7.7850     0.9794     2.4764 C.3     
  33 C33            7.4333    -0.1777     3.4136 C.3     
  34 Cl34           5.0321     4.4111    -0.3299 Cl      
  35 H35           -0.7555     1.5611    -0.3554 H       
  36 H36           -1.9292    -0.2424     0.5709 H       
  37 H37           -3.0579    -4.1020     3.0497 H       
  38 H38           -1.0183    -5.4717     2.8971 H       
  39 H39            0.9861    -4.5825     1.7817 H       
  40 H40            0.9553    -2.3236     0.8046 H       
  41 H41            2.2914     5.1737    -0.3903 H       
  42 H42            2.5229     0.2678     0.1374 H       
  43 H43            4.8380     0.6394    -1.9925 H       
  44 H44            6.6317    -0.7405    -2.9975 H       
  45 H45            9.2971    -0.4100     1.1133 H       
  46 H46           10.6611    -2.2998    -1.6285 H       
  47 H47           12.1003    -2.2913     0.1923 H       
  48 H48           11.4157    -0.6916     0.5671 H       
  49 H49           10.6334    -2.1631     1.1923 H       
  50 H50            8.8421     0.9276     2.2160 H       
  51 H51            7.5796     1.9265     2.9754 H       
  52 H52            7.6386    -1.1247     2.9146 H       
  53 H53            8.0346    -0.1067     4.3200 H       
  54 H54            6.3761    -0.1259     3.6740 H       
@<TRIPOS>BOND
   1    1    2 am
   2    1   12 1
   3    1   35 1
   4    2    3 2
   5    2    4 am
   6    4    5 1
   7    4   36 1
   8    5    6 ar
   9    5   10 ar
  10    6    7 ar
  11    6   11 1
  12    7    8 ar
  13    7   37 1
  14    8    9 ar
  15    8   38 1
  16    9   10 ar
  17    9   39 1
  18   10   40 1
  19   12   13 ar
  20   12   17 ar
  21   13   14 ar
  22   13   18 1
  23   14   15 ar
  24   14   41 1
  25   15   16 ar
  26   15   34 1
  27   16   17 ar
  28   16   21 1
  29   17   42 1
  30   19   20 am
  31   19   28 1
  32   19   32 1
  33   20   21 1
  34   20   29 2
  35   21   22 2
  36   22   23 1
  37   22   43 1
  38   23   24 ar
  39   23   28 ar
  40   24   25 ar
  41   24   44 1
  42   25   26 ar
  43   26   27 ar
  44   26   30 1
  45   27   28 ar
  46   27   45 1
  47   30   31 1
  48   30   46 1
  49   31   47 1
  50   31   48 1
  51   31   49 1
  52   32   33 1
  53   32   50 1
  54   32   51 1
  55   33   52 1
  56   33   53 1
  57   33   54 1

#	End of record

