#	Name: ASD01948214
#	Creating user name:	WinNT
#	Creation time:	15. 06. 2019 20:13

#	Modifying user name:	WinNT
#	Modification time:	15. 06. 2019 20:13

#	Program:	/corina/corina34_cracker 3.40 0067  02.08.2006

@<TRIPOS>MOLECULE
ASD01948214
  41   44    0    0    0
SMALL
NO_CHARGES


@<TRIPOS>ATOM
   1 C1            -0.0266     1.4850     0.0364 C.ar    
   2 C2            -0.0566     0.1300     0.2535 C.ar    
   3 C3             1.1314    -0.6014     0.3625 C.ar    
   4 C4             2.3569     0.0506     0.2503 C.ar    
   5 C5             2.3955     1.4212     0.0311 C.ar    
   6 C6             1.1996     2.1469    -0.0778 C.ar    
   7 C7            -1.1832    -0.8601     0.4190 C.3     
   8 N8            -0.5542    -2.1694     0.6240 N.am    
   9 C9             0.7809    -2.0193     0.5913 C.2     
  10 C10            3.3488     2.9729     2.1438 C.ar    
  11 C11            4.0982     2.8448     0.9825 C.ar    
  12 N12            3.6172     2.0733    -0.0807 N.pl3   
  13 C13            3.8261     3.7359     3.1923 C.ar    
  14 C14            5.0491     4.3726     3.0865 C.ar    
  15 C15            5.8001     4.2476     1.9310 C.ar    
  16 C16            5.3287     3.4858     0.8781 C.ar    
  17 F17            6.0615     3.3640    -0.2503 F       
  18 I18            5.7669     5.5286     4.6795 I       
  19 O19            1.5848    -2.9201     0.7295 O.2     
  20 C20            1.2359     3.6041    -0.3110 C.2     
  21 O21            2.2006     4.1093    -0.8517 O.2     
  22 N22            0.1998     4.3745     0.0755 N.am    
  23 C23           -0.1728     5.7912    -0.0545 C.3     
  24 C24           -0.9844     5.6406     1.2396 C.3     
  25 C25           -1.0590     4.1670     0.8072 C.3     
  26 O26           -0.2319     5.8681     2.4329 O.3     
  27 H27           -0.9497     2.0388    -0.0505 H       
  28 H28            3.2766    -0.5094     0.3341 H       
  29 H29           -1.7892    -0.5961     1.2857 H       
  30 H30           -1.8008    -0.8780    -0.4789 H       
  31 H31           -1.0249    -3.0064     0.7611 H       
  32 H32            2.3913     2.4801     2.2262 H       
  33 H33            4.1367     1.9937    -0.8960 H       
  34 H34            3.2429     3.8354     4.0959 H       
  35 H35            6.7547     4.7463     1.8512 H       
  36 H36            0.6725     6.4728     0.0400 H       
  37 H37           -0.7872     5.9998    -0.9304 H       
  38 H38           -1.9443     6.1568     1.2278 H       
  39 H39           -1.9091     3.9465     0.1616 H       
  40 H40           -0.9661     3.4659     1.6367 H       
  41 H41           -0.7459     5.7725     3.2464 H       
@<TRIPOS>BOND
   1    1    2 ar
   2    1    6 ar
   3    1   27 1
   4    2    3 ar
   5    2    7 1
   6    3    4 ar
   7    3    9 1
   8    4    5 ar
   9    4   28 1
  10    5    6 ar
  11    5   12 1
  12    6   20 1
  13    7    8 1
  14    7   29 1
  15    7   30 1
  16    8    9 am
  17    8   31 1
  18    9   19 2
  19   10   11 ar
  20   10   13 ar
  21   10   32 1
  22   11   12 1
  23   11   16 ar
  24   12   33 1
  25   13   14 ar
  26   13   34 1
  27   14   15 ar
  28   14   18 1
  29   15   16 ar
  30   15   35 1
  31   16   17 1
  32   20   21 2
  33   20   22 am
  34   22   23 1
  35   22   25 1
  36   23   24 1
  37   23   36 1
  38   23   37 1
  39   24   25 1
  40   24   26 1
  41   24   38 1
  42   25   39 1
  43   25   40 1
  44   26   41 1

#	End of record

