#	Name: ASD01411077
#	Creating user name:	WinNT
#	Creation time:	15. 06. 2019 19:19

#	Modifying user name:	WinNT
#	Modification time:	15. 06. 2019 19:19

#	Program:	/corina/corina34_cracker 3.40 0067  02.08.2006

@<TRIPOS>MOLECULE
ASD01411077
  33   35    0    0    0
SMALL
NO_CHARGES


@<TRIPOS>ATOM
   1 C1            -0.0175     1.4408     0.0100 C.2     
   2 C2             0.0021    -0.0041     0.0020 C.ar    
   3 C3             1.2698     1.8584    -0.0001 C.2     
   4 C4            -1.1914     2.3874     0.0207 C.3     
   5 C5             1.3719    -0.3752    -0.0135 C.ar    
   6 C6            -1.0104    -0.9702     0.0075 C.ar    
   7 C7             1.6531     3.3196     0.0056 C.3     
   8 N8             2.1067     0.7773    -0.0149 N.pl3   
   9 C9            -0.6768     3.7806    -0.3693 C.3     
  10 C10            1.7455    -1.7180    -0.0236 C.ar    
  11 C11           -0.6101    -2.2950    -0.0026 C.ar    
  12 Cl12          -2.6890    -0.5279     0.0266 Cl      
  13 O13            0.5007     4.0827     0.3842 O.3     
  14 C14            2.7809     3.5536     1.0127 C.3     
  15 C15            0.7268    -2.6564    -0.0179 C.ar    
  16 Cl16           3.4150    -2.1935    -0.0430 Cl      
  17 C17            3.1588     5.0124     1.0138 C.2     
  18 H18            3.0756     0.8215    -0.0255 H       
  19 O19            2.5849     5.7857     0.2840 O.2     
  20 O20            4.1328     5.4528     1.8255 O.3     
  21 H21            4.3399     6.3968     1.7909 H       
  22 C22            2.1141     3.7379    -1.3920 C.3     
  23 H23           -1.9395     2.0556    -0.6993 H       
  24 H24           -1.6285     2.4217     1.0186 H       
  25 H25           -0.4392     3.7955    -1.4330 H       
  26 H26           -1.4454     4.5241    -0.1581 H       
  27 H27           -1.3624    -3.0698     0.0017 H       
  28 H28            2.4446     3.2646     2.0084 H       
  29 H29            3.6474     2.9541     0.7336 H       
  30 H30            0.9837    -3.7054    -0.0258 H       
  31 H31            1.3043     3.5798    -2.1042 H       
  32 H32            2.3896     4.7924    -1.3833 H       
  33 H33            2.9770     3.1394    -1.6843 H       
@<TRIPOS>BOND
   1    1    2 1
   2    1    3 2
   3    1    4 1
   4    2    5 ar
   5    2    6 ar
   6    3    7 1
   7    3    8 1
   8    4    9 1
   9    4   23 1
  10    4   24 1
  11    5   10 ar
  12    5    8 1
  13    6   11 ar
  14    6   12 1
  15    7   14 1
  16    7   22 1
  17    7   13 1
  18    8   18 1
  19    9   13 1
  20    9   25 1
  21    9   26 1
  22   10   15 ar
  23   10   16 1
  24   11   15 ar
  25   11   27 1
  26   14   17 1
  27   14   28 1
  28   14   29 1
  29   15   30 1
  30   17   19 2
  31   17   20 1
  32   20   21 1
  33   22   31 1
  34   22   32 1
  35   22   33 1

#	End of record

