#	Name: ASD01140198
#	Creating user name:	WinNT
#	Creation time:	15. 06. 2019 19:00

#	Modifying user name:	WinNT
#	Modification time:	15. 06. 2019 19:00

#	Program:	/corina/corina34_cracker 3.40 0067  02.08.2006

@<TRIPOS>MOLECULE
ASD01140198
  30   32    0    0    0
SMALL
NO_CHARGES


@<TRIPOS>ATOM
   1 C1            -0.0166     1.3755     0.0096 C.ar    
   2 C2             0.0021    -0.0041     0.0020 C.ar    
   3 C3             1.2045    -0.6925    -0.0136 C.ar    
   4 C4             2.3987    -0.0027    -0.0174 C.ar    
   5 C5             2.3923     1.3894    -0.0051 C.ar    
   6 C6             1.1749     2.0879     0.0021 C.ar    
   7 C7             3.6506     2.1606     0.0127 C.ar    
   8 C8             4.8898     1.5895    -0.2322 C.ar    
   9 C9             6.0219     2.3810    -0.1933 C.ar    
  10 C10            5.9303     3.7355     0.0878 C.ar    
  11 C11            4.7047     4.3228     0.3333 C.ar    
  12 C12            3.5563     3.5427     0.2960 C.ar    
  13 C13            1.2074    -2.1995    -0.0259 C.3     
  14 C14            1.1966    -2.6902    -1.4507 C.2     
  15 C15            2.1241    -3.5169    -1.8658 C.2     
  16 O16            1.1575     3.4435    -0.0110 O.3     
  17 C17            2.2098     4.0908     0.5408 C.2     
  18 O18            2.0504     5.0894     1.2159 O.2     
  19 H19           -0.9596     1.9019     0.0169 H       
  20 H20           -0.9285    -0.5521     0.0086 H       
  21 H21            3.3352    -0.5403    -0.0294 H       
  22 H22            4.9698     0.5350    -0.4511 H       
  23 H23            6.9889     1.9394    -0.3837 H       
  24 H24            6.8266     4.3375     0.1154 H       
  25 H25            4.6399     5.3785     0.5515 H       
  26 H26            2.1023    -2.5652     0.4776 H       
  27 H27            0.3224    -2.5687     0.4923 H       
  28 H28            0.4241    -2.3603    -2.1296 H       
  29 H29            2.1163    -3.8686    -2.8869 H       
  30 H30            2.8965    -3.8468    -1.1869 H       
@<TRIPOS>BOND
   1    1    2 ar
   2    1    6 ar
   3    1   19 1
   4    2    3 ar
   5    2   20 1
   6    3    4 ar
   7    3   13 1
   8    4    5 ar
   9    4   21 1
  10    5    6 ar
  11    5    7 1
  12    6   16 1
  13    7    8 ar
  14    7   12 ar
  15    8    9 ar
  16    8   22 1
  17    9   10 ar
  18    9   23 1
  19   10   11 ar
  20   10   24 1
  21   11   12 ar
  22   11   25 1
  23   12   17 1
  24   13   14 1
  25   13   26 1
  26   13   27 1
  27   14   15 2
  28   14   28 1
  29   15   29 1
  30   15   30 1
  31   16   17 1
  32   17   18 2

#	End of record

