#	Name: ASD01230050
#	Creating user name:	WinNT
#	Creation time:	15. 06. 2019 19:11

#	Modifying user name:	WinNT
#	Modification time:	15. 06. 2019 19:11

#	Program:	/corina/corina34_cracker 3.40 0067  02.08.2006

@<TRIPOS>MOLECULE
ASD01230050
  57   60    0    0    0
SMALL
NO_CHARGES


@<TRIPOS>ATOM
   1 P1             0.0991     1.7776    -0.3216 P.3     
   2 O2             0.2066     0.3978    -0.8461 O.2     
   3 O3             1.5234     2.5158    -0.4573 O.3     
   4 O4            -0.3355     1.7303     1.2279 O.3     
   5 N5            -1.0579     2.6243    -1.2031 N.3     
   6 O6             0.6193     4.9820     0.4739 O.3     
   7 C7             0.3016     4.6155    -0.7760 C.2     
   8 C8            -1.0964     4.0367    -0.8010 C.3     
   9 C9            -1.6049     4.1685     0.6518 C.3     
  10 C10           -0.5945     5.1674     1.2607 C.3     
  11 O11            1.0231     4.7306    -1.7383 O.2     
  12 C12            2.2775     2.5352    -1.6709 C.3     
  13 C13           -1.3188     0.8323     1.4991 C.ar    
  14 C14           -0.9954    -0.4281     1.9801 C.ar    
  15 C15           -1.9968    -1.3392     2.2550 C.ar    
  16 C16           -3.3205    -0.9957     2.0511 C.ar    
  17 C17           -3.6454     0.2597     1.5713 C.ar    
  18 C18           -2.6480     1.1765     1.3008 C.ar    
  19 C19           -0.8190     2.4942    -2.6467 C.3     
  20 O20           -2.8401     3.7197    -3.2622 O.3     
  21 C21           -2.1592     2.4518    -3.3836 C.3     
  22 C22           -1.9331     2.2689    -4.9008 C.3     
  23 C23           -3.0299     3.1411    -5.5516 C.3     
  24 C24           -3.7889     3.7478    -4.3507 C.3     
  25 O25           -2.0985     0.8984    -5.2700 O.3     
  26 F26           -2.4551     4.1519    -6.3295 F       
  27 F27           -3.8878     2.3528    -6.3261 F       
  28 C28           -5.4937     5.4511    -4.6688 C.2     
  29 N29           -5.8886     6.7100    -4.9348 N.am    
  30 C30           -4.9754     7.6708    -5.1818 C.2     
  31 C31           -3.5984     7.3429    -5.1583 C.2     
  32 C32           -3.2302     6.0722    -4.8883 C.2     
  33 N33           -4.1883     5.1265    -4.6435 N.am    
  34 O34           -5.3318     8.8100    -5.4233 O.2     
  35 O35           -6.3284     4.5961    -4.4434 O.2     
  36 H36           -1.7313     4.6077    -1.4785 H       
  37 H37           -2.6155     4.5764     0.6740 H       
  38 H38           -1.5609     3.2091     1.1672 H       
  39 H39           -0.4090     4.9302     2.3082 H       
  40 H40           -0.9612     6.1889     1.1598 H       
  41 H41            3.2011     3.0929    -1.5160 H       
  42 H42            2.5153     1.5136    -1.9673 H       
  43 H43            1.6912     3.0139    -2.4554 H       
  44 H44            0.0385    -0.6970     2.1392 H       
  45 H45           -1.7455    -2.3206     2.6291 H       
  46 H46           -4.1019    -1.7094     2.2665 H       
  47 H47           -4.6801     0.5253     1.4122 H       
  48 H48           -2.9026     2.1586     0.9307 H       
  49 H49           -0.2385     3.3475    -2.9973 H       
  50 H50           -0.2676     1.5746    -2.8423 H       
  51 H51           -2.7826     1.6474    -2.9932 H       
  52 H52           -0.9430     2.6252    -5.1851 H       
  53 H53           -4.6622     3.1422    -4.1085 H       
  54 H54           -1.9678     0.7265    -6.2126 H       
  55 H55           -6.8340     6.9270    -4.9491 H       
  56 H56           -2.8524     8.0990    -5.3540 H       
  57 H57           -2.1844     5.8035    -4.8661 H       
@<TRIPOS>BOND
   1    1    2 2
   2    1    3 1
   3    1    4 1
   4    1    5 1
   5    3   12 1
   6    4   13 1
   7    5   19 1
   8    5    8 1
   9    6    7 1
  10    6   10 1
  11    7    8 1
  12    7   11 2
  13    8    9 1
  14    8   36 1
  15    9   10 1
  16    9   37 1
  17    9   38 1
  18   10   39 1
  19   10   40 1
  20   12   41 1
  21   12   42 1
  22   12   43 1
  23   13   14 ar
  24   13   18 ar
  25   14   15 ar
  26   14   44 1
  27   15   16 ar
  28   15   45 1
  29   16   17 ar
  30   16   46 1
  31   17   18 ar
  32   17   47 1
  33   18   48 1
  34   19   21 1
  35   19   49 1
  36   19   50 1
  37   20   21 1
  38   20   24 1
  39   21   22 1
  40   21   51 1
  41   22   23 1
  42   22   25 1
  43   22   52 1
  44   23   24 1
  45   23   26 1
  46   23   27 1
  47   24   33 1
  48   24   53 1
  49   25   54 1
  50   28   29 am
  51   28   33 am
  52   28   35 2
  53   29   30 am
  54   29   55 1
  55   30   31 1
  56   30   34 2
  57   31   32 2
  58   31   56 1
  59   32   33 1
  60   32   57 1

#	End of record

