#	Name: ASD01883258
#	Creating user name:	WinNT
#	Creation time:	15. 06. 2019 19:46

#	Modifying user name:	WinNT
#	Modification time:	15. 06. 2019 19:46

#	Program:	/corina/corina34_cracker 3.40 0067  02.08.2006

@<TRIPOS>MOLECULE
ASD01883258
  58   60    0    0    0
SMALL
NO_CHARGES


@<TRIPOS>ATOM
   1 N1            -0.0162     1.3417     0.0094 N.am    
   2 C2             0.0021    -0.0041     0.0020 C.2     
   3 C3            -1.2166    -0.7275     0.0102 C.2     
   4 C4            -2.4257    -0.0118     0.0261 C.2     
   5 C5            -2.3786     1.3954     0.0332 C.2     
   6 C6            -1.1848     2.0319     0.0299 C.2     
   7 O7             1.0656    -0.6000    -0.0121 O.2     
   8 C8            -1.2158    -2.1595     0.0021 C.1     
   9 N9            -1.2152    -3.2954    -0.0044 N.1     
  10 C10            1.2511     2.0766     0.0013 C.3     
  11 C11            1.6785     2.3402    -1.4440 C.3     
  12 C12            3.0021     3.1077    -1.4525 C.3     
  13 C13            3.4926     3.2625    -2.8934 C.3     
  14 C14            2.7934     4.4912    -0.8334 C.3     
  15 C15           -3.7229    -0.7230     0.0347 C.ar    
  16 C16           -4.5720    -0.6188     1.1376 C.ar    
  17 C17           -5.7803    -1.2846     1.1392 C.ar    
  18 C18           -6.1508    -2.0546     0.0510 C.ar    
  19 C19           -5.3137    -2.1620    -1.0455 C.ar    
  20 C20           -4.1055    -1.4964    -1.0624 C.ar    
  21 C21           -7.4718    -2.7799     0.0602 C.3     
  22 N22           -8.5109    -1.9121    -0.5100 N.3     
  23 C23           -9.7549    -2.6596    -0.7371 C.3     
  24 C24          -10.7092    -1.8145    -1.5408 C.ar    
  25 N25          -11.4883    -0.9468    -0.9252 N.ar    
  26 C26          -12.3384    -0.1864    -1.5874 C.ar    
  27 C27          -12.4428    -0.2746    -2.9624 C.ar    
  28 C28          -11.6396    -1.1758    -3.6447 C.ar    
  29 C29          -10.7538    -1.9538    -2.9153 C.ar    
  30 C30           -8.7484    -0.7425     0.3466 C.3     
  31 H31           -3.2952     1.9665     0.0453 H       
  32 H32           -1.1612     3.1116     0.0354 H       
  33 H33            1.1240     3.0260     0.5214 H       
  34 H34            2.0167     1.4862     0.5046 H       
  35 H35            1.8057     1.3908    -1.9642 H       
  36 H36            0.9129     2.9306    -1.9474 H       
  37 H37            3.7443     2.5586    -0.8731 H       
  38 H38            2.7504     3.8116    -3.4729 H       
  39 H39            4.4355     3.8093    -2.8995 H       
  40 H40            3.6413     2.2769    -3.3345 H       
  41 H41            3.7363     5.0380    -0.8395 H       
  42 H42            2.0512     5.0403    -1.4129 H       
  43 H43            2.4439     4.3809     0.1931 H       
  44 H44           -4.2836    -0.0187     1.9879 H       
  45 H45           -6.4382    -1.2049     1.9920 H       
  46 H46           -5.6088    -2.7647    -1.8917 H       
  47 H47           -3.4531    -1.5807    -1.9190 H       
  48 H48           -7.3911    -3.6894    -0.5352 H       
  49 H49           -7.7369    -3.0389     1.0852 H       
  50 H50           -9.5332    -3.5765    -1.2832 H       
  51 H51          -10.2093    -2.9087     0.2219 H       
  52 H52          -12.9605     0.5130    -1.0486 H       
  53 H53          -13.1414     0.3503    -3.4989 H       
  54 H54          -11.6998    -1.2667    -4.7192 H       
  55 H55          -10.1128    -2.6658    -3.4138 H       
  56 H56           -7.8267    -0.1684     0.4413 H       
  57 H57           -9.5220    -0.1170    -0.0988 H       
  58 H58           -9.0727    -1.0744     1.3329 H       
@<TRIPOS>BOND
   1    1    2 am
   2    1   10 1
   3    1    6 1
   4    2    3 1
   5    2    7 2
   6    3    4 2
   7    3    8 1
   8    4    5 1
   9    4   15 1
  10    5    6 2
  11    5   31 1
  12    6   32 1
  13    8    9 3
  14   10   11 1
  15   10   33 1
  16   10   34 1
  17   11   12 1
  18   11   35 1
  19   11   36 1
  20   12   13 1
  21   12   14 1
  22   12   37 1
  23   13   38 1
  24   13   39 1
  25   13   40 1
  26   14   41 1
  27   14   42 1
  28   14   43 1
  29   15   16 ar
  30   15   20 ar
  31   16   17 ar
  32   16   44 1
  33   17   18 ar
  34   17   45 1
  35   18   19 ar
  36   18   21 1
  37   19   20 ar
  38   19   46 1
  39   20   47 1
  40   21   22 1
  41   21   48 1
  42   21   49 1
  43   22   23 1
  44   22   30 1
  45   23   24 1
  46   23   50 1
  47   23   51 1
  48   24   25 ar
  49   24   29 ar
  50   25   26 ar
  51   26   27 ar
  52   26   52 1
  53   27   28 ar
  54   27   53 1
  55   28   29 ar
  56   28   54 1
  57   29   55 1
  58   30   56 1
  59   30   57 1
  60   30   58 1

#	End of record

