#	Name: ASD01120238
#	Creating user name:	WinNT
#	Creation time:	15. 06. 2019 18:59

#	Modifying user name:	WinNT
#	Modification time:	15. 06. 2019 18:59

#	Program:	/corina/corina34_cracker 3.40 0067  02.08.2006

@<TRIPOS>MOLECULE
ASD01120238
  70   71    0    0    0
SMALL
NO_CHARGES


@<TRIPOS>ATOM
   1 C1            -0.0167     1.3779     0.0096 C.ar    
   2 C2             0.0021    -0.0041     0.0020 C.ar    
   3 C3            -1.1857    -0.7116     0.0095 C.ar    
   4 C4            -2.3919    -0.0369     0.0251 C.ar    
   5 C5            -2.4106     1.3455     0.0336 C.ar    
   6 C6            -1.2232     2.0528     0.0305 C.ar    
   7 S7            -3.9483     2.2057     0.0529 S.o2    
   8 N8            -4.3616     2.4354     1.6399 N.am    
   9 C9            -3.6009     3.2212     2.4274 C.2     
  10 N10           -3.9372     3.4082     3.7191 N.am    
  11 O11           -3.6934     3.4955    -0.4862 O.2     
  12 O12           -4.9136     1.3142    -0.4882 O.2     
  13 O13           -2.6111     3.7615     1.9726 O.2     
  14 C14           -2.8996     5.5302    18.9059 C.ar    
  15 C15           -1.7003     5.1609    19.4852 C.ar    
  16 C16           -0.6145     6.0150    19.4308 C.ar    
  17 C17           -0.7283     7.2381    18.7972 C.ar    
  18 C18           -1.9280     7.6075    18.2178 C.ar    
  19 C19           -3.0119     6.7512    18.2672 C.ar    
  20 S20           -2.0732     9.1667    17.4101 S.o2    
  21 N21           -1.6599     8.9369    15.8230 N.am    
  22 C22           -2.4206     8.1511    15.0355 C.2     
  23 N23           -2.0842     7.9642    13.7439 N.am    
  24 O24           -3.4552     9.4972    17.4210 O.2     
  25 O25           -1.0696    10.0031    17.9691 O.2     
  26 O26           -3.4104     7.6109    15.4903 O.2     
  27 C27           -3.7082     4.3052     5.9828 C.3     
  28 C28           -4.0832     4.5992    18.9652 C.3     
  29 C29            1.2780     2.1491     0.0014 C.3     
  30 C30           -3.1103     4.2624     4.5751 C.3     
  31 C31           -2.5789     6.1322     9.1785 C.3     
  32 C32           -3.1769     6.1751    10.5861 C.3     
  33 C33           -3.4426     5.2401     8.2845 C.3     
  34 C34           -2.8446     5.1973     6.8768 C.3     
  35 C35           -2.3132     7.0671    11.4802 C.3     
  36 C36           -2.9112     7.1100    12.8878 C.3     
  37 H37            0.9446    -0.5313    -0.0101 H       
  38 H38           -1.1711    -1.7915     0.0029 H       
  39 H39           -3.3198    -0.5895     0.0302 H       
  40 H40           -1.2378     3.1327     0.0372 H       
  41 H41           -5.1512     2.0044     2.0027 H       
  42 H42           -4.7269     2.9772     4.0819 H       
  43 H43           -1.6114     4.2054    19.9806 H       
  44 H44            0.3225     5.7268    19.8841 H       
  45 H45            0.1197     7.9056    18.7554 H       
  46 H46           -3.9490     7.0397    17.8146 H       
  47 H47           -0.8702     9.3679    15.4602 H       
  48 H48           -1.2946     8.3951    13.3810 H       
  49 H49           -4.7198     4.7085     5.9357 H       
  50 H50           -3.7379     3.2969     6.3958 H       
  51 H51           -4.6633     4.8059    19.8646 H       
  52 H52           -4.7094     4.7512    18.0861 H       
  53 H53           -3.7330     3.5673    18.9879 H       
  54 H54            1.5804     2.3405    -1.0282 H       
  55 H55            1.1397     3.0969     0.5217 H       
  56 H56            2.0505     1.5677     0.5048 H       
  57 H57           -2.0987     3.8591     4.6222 H       
  58 H58           -3.0806     5.2707     4.1621 H       
  59 H59           -2.5492     7.1405     8.7655 H       
  60 H60           -1.5674     5.7289     9.2255 H       
  61 H61           -4.1884     6.5784    10.5391 H       
  62 H62           -3.2066     5.1668    10.9991 H       
  63 H63           -3.4723     4.2318     8.6974 H       
  64 H64           -4.4541     5.6434     8.2374 H       
  65 H65           -1.8331     4.7940     6.9238 H       
  66 H66           -2.8149     6.2056     6.4638 H       
  67 H67           -1.3017     6.6638    11.5272 H       
  68 H68           -2.2835     8.0754    11.0672 H       
  69 H69           -2.9409     6.1017    13.3008 H       
  70 H70           -3.9227     7.5133    12.8408 H       
@<TRIPOS>BOND
   1    1    2 ar
   2    1   29 1
   3    1    6 ar
   4    2    3 ar
   5    2   37 1
   6    3    4 ar
   7    3   38 1
   8    4    5 ar
   9    4   39 1
  10    5    6 ar
  11    5    7 1
  12    6   40 1
  13    7    8 am
  14    7   11 2
  15    7   12 2
  16    8    9 am
  17    8   41 1
  18    9   10 am
  19    9   13 2
  20   10   30 1
  21   10   42 1
  22   14   15 ar
  23   14   28 1
  24   14   19 ar
  25   15   16 ar
  26   15   43 1
  27   16   17 ar
  28   16   44 1
  29   17   18 ar
  30   17   45 1
  31   18   19 ar
  32   18   20 1
  33   19   46 1
  34   20   21 am
  35   20   24 2
  36   20   25 2
  37   21   22 am
  38   21   47 1
  39   22   23 am
  40   22   26 2
  41   23   36 1
  42   23   48 1
  43   27   30 1
  44   27   34 1
  45   27   49 1
  46   27   50 1
  47   28   51 1
  48   28   52 1
  49   28   53 1
  50   29   54 1
  51   29   55 1
  52   29   56 1
  53   30   57 1
  54   30   58 1
  55   31   32 1
  56   31   33 1
  57   31   59 1
  58   31   60 1
  59   32   35 1
  60   32   61 1
  61   32   62 1
  62   33   34 1
  63   33   63 1
  64   33   64 1
  65   34   65 1
  66   34   66 1
  67   35   36 1
  68   35   67 1
  69   35   68 1
  70   36   69 1
  71   36   70 1

#	End of record

