#	Name: ASD01914392
#	Creating user name:	WinNT
#	Creation time:	15. 06. 2019 20:03

#	Modifying user name:	WinNT
#	Modification time:	15. 06. 2019 20:03

#	Program:	/corina/corina34_cracker 3.40 0067  02.08.2006

@<TRIPOS>MOLECULE
ASD01914392
  34   36    0    0    0
SMALL
NO_CHARGES


@<TRIPOS>ATOM
   1 C1            -0.0167     1.3806     0.0096 C.ar    
   2 C2             0.0021    -0.0041     0.0020 C.ar    
   3 C3             1.2096    -0.6818    -0.0127 C.ar    
   4 C4             2.3977     0.0225    -0.0202 C.ar    
   5 C5             2.3808     1.4105    -0.0131 C.ar    
   6 C6             1.1693     2.0882     0.0021 C.ar    
   7 N7             3.5864     2.1275    -0.0202 N.pl3   
   8 C8             4.6541     1.9288     0.8136 C.2     
   9 C9             5.6006     2.8367     0.4594 C.2     
  10 C10            6.9349     2.9978     1.0878 C.ar    
  11 C11            7.8129     3.9753     0.6230 C.ar    
  12 C12            9.0527     4.1219     1.2108 C.ar    
  13 C13            9.4251     3.2992     2.2614 C.ar    
  14 C14            8.5556     2.3262     2.7266 C.ar    
  15 C15            7.3118     2.1760     2.1483 C.ar    
  16 N16            5.1123     3.5653    -0.5649 N.2     
  17 C17            3.9140     3.1445    -0.8598 C.2     
  18 C18            3.0347     3.6977    -1.9515 C.3     
  19 C19            2.1908     4.8169    -1.3981 C.2     
  20 O20            2.2939     5.1357    -0.2258 O.co2   
  21 O21            1.4050     5.4035    -2.1226 O.co2   
  22 F22           10.6401     3.4459     2.8336 F       
  23 F23           -1.1591    -0.6946     0.0094 F       
  24 H24           -0.9594     1.9075     0.0169 H       
  25 H25            1.2224    -1.7617    -0.0179 H       
  26 H26            3.3392    -0.5064    -0.0313 H       
  27 H27            1.1543     3.1681     0.0073 H       
  28 H28            4.7292     1.1930     1.6006 H       
  29 H29            7.5234     4.6168    -0.1962 H       
  30 H30            9.7338     4.8788     0.8510 H       
  31 H31            8.8502     1.6868     3.5456 H       
  32 H32            6.6343     1.4175     2.5119 H       
  33 H33            3.6570     4.0782    -2.7615 H       
  34 H34            2.3867     2.9078    -2.3314 H       
@<TRIPOS>BOND
   1    1    2 ar
   2    1    6 ar
   3    1   24 1
   4    2    3 ar
   5    2   23 1
   6    3    4 ar
   7    3   25 1
   8    4    5 ar
   9    4   26 1
  10    5    6 ar
  11    5    7 1
  12    6   27 1
  13    7    8 1
  14    7   17 1
  15    8    9 2
  16    8   28 1
  17    9   10 1
  18    9   16 1
  19   10   11 ar
  20   10   15 ar
  21   11   12 ar
  22   11   29 1
  23   12   13 ar
  24   12   30 1
  25   13   14 ar
  26   13   22 1
  27   14   15 ar
  28   14   31 1
  29   15   32 1
  30   16   17 2
  31   17   18 1
  32   18   19 1
  33   18   33 1
  34   18   34 1
  35   19   20 ar
  36   19   21 ar

#	End of record

