#	Name: ASD02398035
#	Creating user name:	WinNT
#	Creation time:	15. 06. 2019 20:20

#	Modifying user name:	WinNT
#	Modification time:	15. 06. 2019 20:20

#	Program:	/corina/corina34_cracker 3.40 0067  02.08.2006

@<TRIPOS>MOLECULE
ASD02398035
  83   88    0    0    0
SMALL
NO_CHARGES


@<TRIPOS>ATOM
   1 C1            -0.2270     1.4489    -0.0315 C.ar    
   2 C2             0.0233     0.0750    -0.1029 C.ar    
   3 C3            -1.0385    -0.8240    -0.0401 C.ar    
   4 C4            -2.3305    -0.3558     0.0920 C.ar    
   5 C5            -2.5750     1.0040     0.1624 C.ar    
   6 C6            -1.5280     1.9047     0.1063 C.ar    
   7 C7            -3.4787    -1.3296     0.1592 C.3     
   8 C8            -3.6627    -1.7917     1.5818 C.2     
   9 O9            -2.8801    -1.4466     2.4352 O.2     
  10 O10           -4.6961    -2.5867     1.9008 O.3     
  11 C11            1.4133    -0.4227    -0.2453 C.ar    
  12 C12            2.3197    -0.2761     0.8034 C.ar    
  13 C13            1.8162    -1.0438    -1.4258 C.ar    
  14 C14            3.1109    -1.5054    -1.5526 C.ar    
  15 C15            4.0075    -1.3525    -0.5107 C.ar    
  16 C16            3.6114    -0.7414     0.6656 C.ar    
  17 C17            1.8899     0.3898     2.0852 C.3     
  18 N18            2.9656     0.2855     3.0742 N.am    
  19 C19            4.0140     1.1139     3.1756 C.2     
  20 O20            4.8569     0.8012     4.1661 O.3     
  21 C21            4.3707    -0.3830     4.8620 C.3     
  22 C22            3.0677    -0.7418     4.1220 C.3     
  23 O23            4.1837     2.0623     2.4352 O.2     
  24 C24            3.1724    -2.1326     3.4929 C.3     
  25 C25            5.3702    -1.5058     4.7559 C.ar    
  26 C26            5.4871    -2.4263     5.7805 C.ar    
  27 C27            6.1662    -1.6185     3.6314 C.ar    
  28 C28            7.0831    -2.6485     3.5340 C.ar    
  29 C29            7.2042    -3.5654     4.5613 C.ar    
  30 C30            6.4040    -3.4562     5.6832 C.ar    
  31 O31            0.8024     2.3333    -0.0913 O.3     
  32 C32            0.4709     3.7210    -0.0122 C.3     
  33 C33            1.7307     4.5440    -0.0948 C.ar    
  34 C34            2.2023     4.9639    -1.3245 C.ar    
  35 C35            2.4111     4.8834     1.0597 C.ar    
  36 C36            3.5663     5.6385     0.9846 C.ar    
  37 C37            4.0419     6.0543    -0.2462 C.ar    
  38 C38            3.3576     5.7186    -1.4009 C.ar    
  39 Cl39           5.4925     7.0032    -0.3413 Cl      
  40 C40           -4.8774    -2.8997     3.3070 C.3     
  41 C41           -6.0036    -3.8893     3.4602 C.ar    
  42 C42           -5.7294    -5.2423     3.5325 C.ar    
  43 C43           -6.7619    -6.1504     3.6731 C.ar    
  44 C44           -8.0700    -5.7050     3.7414 C.ar    
  45 C45           -8.3438    -4.3508     3.6689 C.ar    
  46 C46           -7.3100    -3.4433     3.5341 C.ar    
  47 Cl47          -9.3674    -6.8450     3.9173 Cl      
  48 C48            5.4195    -1.8590    -0.6550 C.3     
  49 F49            5.5802    -2.4386    -1.9181 F       
  50 F50            6.3141    -0.7927    -0.5140 F       
  51 F51            5.6749    -2.8159     0.3331 F       
  52 H52           -0.8515    -1.8862    -0.0951 H       
  53 H53           -3.5882     1.3633     0.2657 H       
  54 H54           -1.7250     2.9652     0.1618 H       
  55 H55           -4.3902    -0.8408    -0.1848 H       
  56 H56           -3.2645    -2.1884    -0.4769 H       
  57 H57            1.1168    -1.1640    -2.2399 H       
  58 H58            3.4242    -1.9872    -2.4670 H       
  59 H59            4.3157    -0.6246     1.4760 H       
  60 H60            1.6730     1.4407     1.8937 H       
  61 H61            0.9955    -0.1019     2.4679 H       
  62 H62            4.1620    -0.1534     5.9070 H       
  63 H63            2.2157    -0.6904     4.7999 H       
  64 H64            3.3871    -2.8672     4.2690 H       
  65 H65            2.2299    -2.3831     3.0061 H       
  66 H66            3.9750    -2.1382     2.7553 H       
  67 H67            4.8623    -2.3406     6.6573 H       
  68 H68            6.0716    -0.9021     2.8287 H       
  69 H69            7.7045    -2.7370     2.6551 H       
  70 H70            7.9203    -4.3703     4.4850 H       
  71 H71            6.4986    -4.1726     6.4858 H       
  72 H72           -0.1899     3.9844    -0.8381 H       
  73 H73           -0.0324     3.9210     0.9337 H       
  74 H74            1.6680     4.7018    -2.2258 H       
  75 H75            2.0398     4.5587     2.0205 H       
  76 H76            4.0975     5.9042     1.8867 H       
  77 H77            3.7286     6.0426    -2.3621 H       
  78 H78           -3.9586    -3.3306     3.7048 H       
  79 H79           -5.1178    -1.9881     3.8541 H       
  80 H80           -4.7083    -5.5899     3.4789 H       
  81 H81           -6.5476    -7.2074     3.7292 H       
  82 H82           -9.3647    -4.0025     3.7222 H       
  83 H83           -7.5236    -2.3861     3.4776 H       
@<TRIPOS>BOND
   1    1    2 ar
   2    1   31 1
   3    1    6 ar
   4    2    3 ar
   5    2   11 1
   6    3    4 ar
   7    3   52 1
   8    4    5 ar
   9    4    7 1
  10    5    6 ar
  11    5   53 1
  12    6   54 1
  13    7    8 1
  14    7   55 1
  15    7   56 1
  16    8    9 2
  17    8   10 1
  18   10   40 1
  19   11   12 ar
  20   11   13 ar
  21   12   17 1
  22   12   16 ar
  23   13   14 ar
  24   13   57 1
  25   14   15 ar
  26   14   58 1
  27   15   16 ar
  28   15   48 1
  29   16   59 1
  30   17   18 1
  31   17   60 1
  32   17   61 1
  33   18   19 am
  34   18   22 1
  35   19   20 1
  36   19   23 2
  37   20   21 1
  38   21   22 1
  39   21   25 1
  40   21   62 1
  41   22   24 1
  42   22   63 1
  43   24   64 1
  44   24   65 1
  45   24   66 1
  46   25   26 ar
  47   25   27 ar
  48   26   30 ar
  49   26   67 1
  50   27   28 ar
  51   27   68 1
  52   28   29 ar
  53   28   69 1
  54   29   30 ar
  55   29   70 1
  56   30   71 1
  57   31   32 1
  58   32   33 1
  59   32   72 1
  60   32   73 1
  61   33   34 ar
  62   33   35 ar
  63   34   38 ar
  64   34   74 1
  65   35   36 ar
  66   35   75 1
  67   36   37 ar
  68   36   76 1
  69   37   38 ar
  70   37   39 1
  71   38   77 1
  72   40   41 1
  73   40   78 1
  74   40   79 1
  75   41   42 ar
  76   41   46 ar
  77   42   43 ar
  78   42   80 1
  79   43   44 ar
  80   43   81 1
  81   44   45 ar
  82   44   47 1
  83   45   46 ar
  84   45   82 1
  85   46   83 1
  86   48   49 1
  87   48   50 1
  88   48   51 1

#	End of record

