#	Name: ASD04882138
#	Creating user name:	WinNT
#	Creation time:	15. 06. 2019 20:54

#	Modifying user name:	WinNT
#	Modification time:	15. 06. 2019 20:54

#	Program:	/corina/corina34_cracker 3.40 0067  02.08.2006

@<TRIPOS>MOLECULE
ASD04882138
  82   85    0    0    0
SMALL
NO_CHARGES


@<TRIPOS>ATOM
   1 C1             4.8159     2.4932    -2.5596 C.2     
   2 C2             4.2392     1.2020    -2.1717 C.2     
   3 O3             4.9263     0.3757    -1.6004 O.2     
   4 N4             2.9483     0.9303    -2.4478 N.am    
   5 C5             2.4242    -0.3384    -2.1682 C.ar    
   6 C6             1.0596    -0.4891    -1.9044 C.ar    
   7 C7             0.5382    -1.7472    -1.6274 C.ar    
   8 C8             1.3636    -2.8501    -1.6116 C.ar    
   9 C9             2.7285    -2.7066    -1.8744 C.ar    
  10 C10            3.2546    -1.4428    -2.1586 C.ar    
  11 N11            0.2217     0.6230    -1.9188 N.3     
  12 C12            0.5929     1.5758    -0.8634 C.3     
  13 C13           -0.2980     2.8163    -0.9633 C.3     
  14 N14           -1.7064     2.4162    -0.8361 N.3     
  15 C15           -2.0776     1.4634    -1.8915 C.3     
  16 C16           -1.1867     0.2229    -1.7917 C.3     
  17 C17           -2.5469     3.5317    -0.8505 C.ar    
  18 C18           -2.5234     4.4348     0.2049 C.ar    
  19 C19           -4.2115     5.7418    -0.8794 C.ar    
  20 C20           -3.4038     3.7436    -1.9228 C.ar    
  21 C21           -3.3553     5.5368     0.1872 C.ar    
  22 C22           -4.2333     4.8480    -1.9341 C.ar    
  23 C23            3.6123    -3.8877    -1.8571 C.2     
  24 N24            3.1033    -5.1063    -1.5876 N.am    
  25 O25            4.7999    -3.7619    -2.0859 O.2     
  26 C26            3.9809    -6.2792    -1.5704 C.3     
  27 C27            3.1585    -7.5267    -1.2411 C.3     
  28 C28           -1.5915     4.2118     1.3680 C.3     
  29 C29            6.1026     2.8952    -2.3418 C.2     
  30 C30            6.2165     4.1893    -2.8735 C.2     
  31 C31            5.0098     4.5163    -3.3861 C.2     
  32 O32            4.1698     3.4898    -3.1995 O.3     
  33 N33            4.0361    -8.6996    -1.2239 N.am    
  34 C34            4.6412    -9.0717    -0.0785 C.2     
  35 C35            4.2560    -9.4680    -2.4516 C.3     
  36 C36            5.4499   -10.3425    -0.0320 C.3     
  37 O37            4.5349    -8.3838     0.9147 O.2     
  38 C38            6.1010   -10.4825     1.3455 C.3     
  39 C39            4.5327   -11.5403    -0.2866 C.3     
  40 C40            6.5371   -10.2949    -1.1075 C.3     
  41 C41            6.9220   -11.7727     1.3928 C.3     
  42 H42            2.3821     1.6133    -2.8401 H       
  43 H43           -0.5163    -1.8606    -1.4236 H       
  44 H44            0.9555    -3.8264    -1.3957 H       
  45 H45            4.3083    -1.3295    -2.3665 H       
  46 H46            0.4578     1.1087     0.1121 H       
  47 H47            1.6362     1.8665    -0.9864 H       
  48 H48           -0.0439     3.5118    -0.1635 H       
  49 H49           -0.1428     3.2987    -1.9283 H       
  50 H50           -3.1209     1.1727    -1.7685 H       
  51 H51           -1.9426     1.9305    -2.8671 H       
  52 H52           -1.4408    -0.4726    -2.5915 H       
  53 H53           -1.3419    -0.2596    -0.8267 H       
  54 H54           -4.8614     6.6043    -0.8906 H       
  55 H55           -3.4213     3.0459    -2.7470 H       
  56 H56           -3.3375     6.2392     1.0074 H       
  57 H57           -4.9031     5.0110    -2.7655 H       
  58 H58            2.1559    -5.2067    -1.4051 H       
  59 H59            4.4468    -6.3988    -2.5485 H       
  60 H60            4.7539    -6.1435    -0.8139 H       
  61 H61            2.6927    -7.4070    -0.2630 H       
  62 H62            2.3856    -7.6623    -1.9976 H       
  63 H63           -0.6656     4.7626     1.2026 H       
  64 H64           -2.0644     4.5632     2.2851 H       
  65 H65           -1.3704     3.1482     1.4577 H       
  66 H66            6.8815     2.3277    -1.8543 H       
  67 H67            7.1021     4.8075    -2.8727 H       
  68 H68            4.7640     5.4501    -3.8698 H       
  69 H69            5.0643    -9.0138    -3.0247 H       
  70 H70            4.5237   -10.4931    -2.1956 H       
  71 H71            3.3437    -9.4689    -3.0481 H       
  72 H72            6.7544    -9.6291     1.5269 H       
  73 H73            5.3265   -10.5164     2.1117 H       
  74 H74            3.8786   -11.3240    -1.1313 H       
  75 H75            5.1368   -12.4194    -0.5107 H       
  76 H76            3.9291   -11.7309     0.6008 H       
  77 H77            7.1905    -9.4416    -0.9260 H       
  78 H78            7.1220   -11.2141    -1.0738 H       
  79 H79            6.0732   -10.1952    -2.0888 H       
  80 H80            6.2686   -12.6260     1.2114 H       
  81 H81            7.6965   -11.7388     0.6266 H       
  82 H82            7.3859   -11.8724     2.3741 H       
@<TRIPOS>BOND
   1    1    2 1
   2    1   29 2
   3    1   32 1
   4    2    3 2
   5    2    4 am
   6    4    5 1
   7    4   42 1
   8    5    6 ar
   9    5   10 ar
  10    6    7 ar
  11    6   11 1
  12    7    8 ar
  13    7   43 1
  14    8    9 ar
  15    8   44 1
  16    9   10 ar
  17    9   23 1
  18   10   45 1
  19   11   12 1
  20   11   16 1
  21   12   13 1
  22   12   46 1
  23   12   47 1
  24   13   14 1
  25   13   48 1
  26   13   49 1
  27   14   15 1
  28   14   17 1
  29   15   16 1
  30   15   50 1
  31   15   51 1
  32   16   52 1
  33   16   53 1
  34   17   18 ar
  35   17   20 ar
  36   18   21 ar
  37   18   28 1
  38   19   21 ar
  39   19   22 ar
  40   19   54 1
  41   20   22 ar
  42   20   55 1
  43   21   56 1
  44   22   57 1
  45   23   24 am
  46   23   25 2
  47   24   26 1
  48   24   58 1
  49   26   27 1
  50   26   59 1
  51   26   60 1
  52   27   33 1
  53   27   61 1
  54   27   62 1
  55   28   63 1
  56   28   64 1
  57   28   65 1
  58   29   30 1
  59   29   66 1
  60   30   31 2
  61   30   67 1
  62   31   32 1
  63   31   68 1
  64   33   34 am
  65   33   35 1
  66   34   36 1
  67   34   37 2
  68   35   69 1
  69   35   70 1
  70   35   71 1
  71   36   38 1
  72   36   39 1
  73   36   40 1
  74   38   41 1
  75   38   72 1
  76   38   73 1
  77   39   74 1
  78   39   75 1
  79   39   76 1
  80   40   77 1
  81   40   78 1
  82   40   79 1
  83   41   80 1
  84   41   81 1
  85   41   82 1

#	End of record

