#	Name: ASD09740162
#	Creating user name:	WinNT
#	Creation time:	15. 06. 2019 21:22

#	Modifying user name:	WinNT
#	Modification time:	15. 06. 2019 21:22

#	Program:	/corina/corina34_cracker 3.40 0067  02.08.2006

@<TRIPOS>MOLECULE
ASD09740162
  35   37    0    0    0
SMALL
NO_CHARGES


@<TRIPOS>ATOM
   1 S1            -0.0172     1.4168     0.0098 S.o2    
   2 O2            -4.5899     3.0017    -6.3452 O.3     
   3 N3            -4.1227     2.3790    -5.4152 N.2     
   4 C4            -4.0220     4.2153    -6.4140 C.2     
   5 N5            -3.1492     4.2865    -5.4279 N.2     
   6 C6            -3.2241     3.0981    -4.7930 C.2     
   7 C7            -2.4329     2.6833    -3.6074 C.ar    
   8 C8            -4.3181     5.2721    -7.4071 C.ar    
   9 C9            -2.6154     1.4184    -3.0529 C.ar    
  10 C10           -1.5010     3.5554    -3.0489 C.ar    
  11 C11           -0.7677     3.1644    -1.9468 C.ar    
  12 C12           -0.9567     1.9094    -1.3970 C.ar    
  13 C13           -1.8768     1.0376    -1.9508 C.ar    
  14 O14            0.0021    -0.0041     0.0020 O.2     
  15 O15            1.1617     2.2101     0.0028 O.2     
  16 N16           -0.8748     1.8654     1.3536 N.am    
  17 C17           -3.6460     6.5002    -7.3723 C.ar    
  18 C18           -5.2711     5.0692    -8.4075 C.ar    
  19 C19           -5.5164     6.0875    -9.3180 C.ar    
  20 N20           -4.8608     7.2335    -9.2437 N.ar    
  21 C21           -3.9501     7.4588    -8.3155 C.ar    
  22 O22           -6.4392     5.9049   -10.2959 O.3     
  23 C23           -6.6469     6.9897   -11.2026 C.3     
  24 H24           -3.3339     0.7371    -3.4843 H       
  25 H25           -1.3525     4.5355    -3.4776 H       
  26 H26           -0.0448     3.8396    -1.5132 H       
  27 H27           -2.0208     0.0589    -1.5174 H       
  28 H28           -0.7362     2.7410     1.7474 H       
  29 H29           -1.5157     1.2527     1.7468 H       
  30 H30           -2.8994     6.6941    -6.6164 H       
  31 H31           -5.8085     4.1346    -8.4718 H       
  32 H32           -3.4386     8.4097    -8.2918 H       
  33 H33           -6.9773     7.8682   -10.6484 H       
  34 H34           -5.7138     7.2155   -11.7188 H       
  35 H35           -7.4080     6.7128   -11.9321 H       
@<TRIPOS>BOND
   1    1   14 2
   2    1   15 2
   3    1   16 am
   4    1   12 1
   5    2    3 1
   6    2    4 1
   7    3    6 2
   8    4    5 2
   9    4    8 1
  10    5    6 1
  11    6    7 1
  12    7    9 ar
  13    7   10 ar
  14    8   18 ar
  15    8   17 ar
  16    9   13 ar
  17    9   24 1
  18   10   11 ar
  19   10   25 1
  20   11   12 ar
  21   11   26 1
  22   12   13 ar
  23   13   27 1
  24   16   28 1
  25   16   29 1
  26   17   21 ar
  27   17   30 1
  28   18   19 ar
  29   18   31 1
  30   19   20 ar
  31   19   22 1
  32   20   21 ar
  33   21   32 1
  34   22   23 1
  35   23   33 1
  36   23   34 1
  37   23   35 1

#	End of record

