#	Name: ASD09610009
#	Creating user name:	WinNT
#	Creation time:	15. 06. 2019 21:22

#	Modifying user name:	WinNT
#	Modification time:	15. 06. 2019 21:22

#	Program:	/corina/corina34_cracker 3.40 0067  02.08.2006

@<TRIPOS>MOLECULE
ASD09610009
  29   30    0    0    0
SMALL
NO_CHARGES


@<TRIPOS>ATOM
   1 O1            -0.0171     1.4097     0.0098 O.3     
   2 N2             0.0021    -0.0041     0.0020 N.2     
   3 C3             1.1394    -0.4884    -0.3689 C.2     
   4 C4             2.0754     0.6682    -0.6640 C.3     
   5 C5             1.3514     1.8642    -0.0008 C.3     
   6 C6             1.4721    -1.9204    -0.4850 C.2     
   7 O7             2.5816    -2.2589    -0.8456 O.2     
   8 O8             0.5453    -2.8534    -0.1912 O.3     
   9 C9             1.4988     3.1124    -0.8323 C.ar    
  10 C10            2.4241     4.0753    -0.4755 C.ar    
  11 C11            2.5593     5.2203    -1.2382 C.ar    
  12 C12            1.7694     5.4021    -2.3580 C.ar    
  13 C13            0.8447     4.4387    -2.7154 C.ar    
  14 C14            0.7126     3.2917    -1.9551 C.ar    
  15 C15            0.9427    -4.2433    -0.3279 C.3     
  16 C16           -0.2324    -5.1489     0.0463 C.3     
  17 H17            3.0504     0.5036    -0.2055 H       
  18 H18            2.1729     0.8225    -1.7386 H       
  19 H19            1.7162     2.0275     1.0133 H       
  20 H20            3.0413     3.9333     0.3994 H       
  21 H21            3.2818     5.9729    -0.9590 H       
  22 H22            1.8745     6.2969    -2.9535 H       
  23 H23            0.2274     4.5809    -3.5900 H       
  24 H24           -0.0073     2.5374    -2.2364 H       
  25 H25            1.2367    -4.4373    -1.3595 H       
  26 H26            1.7840    -4.4475     0.3342 H       
  27 H27            0.0659    -6.1922    -0.0564 H       
  28 H28           -0.5264    -4.9549     1.0778 H       
  29 H29           -1.0737    -4.9447    -0.6159 H       
@<TRIPOS>BOND
   1    1    2 1
   2    1    5 1
   3    2    3 2
   4    3    4 1
   5    3    6 1
   6    4    5 1
   7    4   17 1
   8    4   18 1
   9    5    9 1
  10    5   19 1
  11    6    7 2
  12    6    8 1
  13    8   15 1
  14    9   10 ar
  15    9   14 ar
  16   10   11 ar
  17   10   20 1
  18   11   12 ar
  19   11   21 1
  20   12   13 ar
  21   12   22 1
  22   13   14 ar
  23   13   23 1
  24   14   24 1
  25   15   16 1
  26   15   25 1
  27   15   26 1
  28   16   27 1
  29   16   28 1
  30   16   29 1

#	End of record

