#	Name: ASD05730132
#	Creating user name:	WinNT
#	Creation time:	15. 06. 2019 21:02

#	Modifying user name:	WinNT
#	Modification time:	15. 06. 2019 21:02

#	Program:	/corina/corina34_cracker 3.40 0067  02.08.2006

@<TRIPOS>MOLECULE
ASD05730132
  90   95    0    0    0
SMALL
NO_CHARGES


@<TRIPOS>ATOM
   1 N1            -0.0118     1.3947     0.0612 N.pl3   
   2 C2             0.0057    -0.0044     0.0405 C.ar    
   3 C3            -1.0324    -0.7031    -0.5619 C.ar    
   4 C4            -1.0149    -2.0835    -0.5827 C.ar    
   5 C5             0.0408    -2.7733    -0.0013 C.ar    
   6 C6             1.0787    -2.0748     0.6015 C.ar    
   7 C7             1.0641    -0.6942     0.6173 C.ar    
   8 N8             0.0586    -4.1737    -0.0224 N.pl3   
   9 C9             1.2583    -4.8474    -0.1422 C.ar    
  10 N10            1.2605    -6.1684    -0.0467 N.ar    
  11 C11            2.3945    -6.8510    -0.1567 C.ar    
  12 C12            3.5948    -6.1408    -0.3769 C.ar    
  13 C13            3.5395    -4.7420    -0.4705 C.ar    
  14 N14            2.3672    -4.1469    -0.3543 N.ar    
  15 N15            2.4061    -8.2194    -0.0586 N.am    
  16 C16            3.5592    -8.9065    -0.1700 C.2     
  17 C17            4.8217    -8.2007    -0.3982 C.2     
  18 C18            4.8198    -6.8351    -0.4992 C.2     
  19 C19            1.1515    -8.9406     0.1701 C.3     
  20 O20            3.5518   -10.1213    -0.0801 O.2     
  21 C21            6.0898    -8.9574    -0.5197 C.ar    
  22 C22            1.0833     2.1316     0.6966 C.3     
  23 C23            0.5148    -9.2954    -1.1751 C.3     
  24 C24            6.6839    -9.1320    -1.7694 C.ar    
  25 C25            7.8649    -9.8372    -1.8761 C.ar    
  26 C26            8.4600   -10.3706    -0.7466 C.ar    
  27 C27            7.8753   -10.2011     0.4955 C.ar    
  28 C28            6.6969    -9.4927     0.6156 C.ar    
  29 S29            8.6403   -10.8845     1.9281 S.o     
  30 C30            1.1826     3.5308     0.0825 C.3     
  31 C31            6.0369    -8.5522    -3.0007 C.3     
  32 C32            9.6998    -9.5851     2.4697 C.ar    
  33 O33            7.5938   -10.8653     2.8892 O.2     
  34 C34           10.9969    -9.5088     1.9979 C.ar    
  35 C35            2.2879     4.3166     0.7918 C.3     
  36 N36            1.9802     4.4120     2.2245 N.3     
  37 C37            1.9265     3.0825     2.8458 C.3     
  38 C38            0.8105     2.2599     2.1978 C.3     
  39 N39           -0.7398   -10.0166    -0.9464 N.am    
  40 C40            9.2323    -8.6387     3.3622 C.ar    
  41 C41           10.0636    -7.6192     3.7872 C.ar    
  42 C42           11.3625    -7.5465     3.3201 C.ar    
  43 C43           11.8282    -8.4894     2.4228 C.ar    
  44 S44           -2.1768    -9.1938    -0.9311 S.o2    
  45 C45           -2.7362    -9.2276    -2.6564 C.3     
  46 C46           -0.7230   -11.4656    -0.7313 C.3     
  47 C47            2.9469     5.2767     2.9141 C.3     
  48 O48           -3.0270    -9.9885    -0.1157 O.2     
  49 O49           -1.8202    -7.8726    -0.5484 O.2     
  50 H50           -0.7470     1.8766    -0.3488 H       
  51 H51           -1.8537    -0.1666    -1.0138 H       
  52 H52           -1.8224    -2.6268    -1.0508 H       
  53 H53            1.8996    -2.6113     1.0540 H       
  54 H54            1.8713    -0.1510     1.0861 H       
  55 H55           -0.7717    -4.6704     0.0472 H       
  56 H56            4.4367    -4.1647    -0.6384 H       
  57 H57            5.7406    -6.2966    -0.6678 H       
  58 H58            1.3544    -9.8545     0.7284 H       
  59 H59            0.4690    -8.3104     0.7402 H       
  60 H60            2.0207     1.5978     0.5401 H       
  61 H61            0.3119    -8.3815    -1.7334 H       
  62 H62            1.1974    -9.9255    -1.7453 H       
  63 H63            8.3258    -9.9734    -2.8433 H       
  64 H64            9.3845   -10.9218    -0.8351 H       
  65 H65            6.2415    -9.3607     1.5860 H       
  66 H66            1.4192     3.4467    -0.9782 H       
  67 H67            0.2319     4.0498     0.2039 H       
  68 H68            6.4118    -7.5422    -3.1668 H       
  69 H69            6.2747    -9.1745    -3.8634 H       
  70 H70            4.9561    -8.5203    -2.8625 H       
  71 H71           11.3610   -10.2460     1.2975 H       
  72 H72            3.2407     3.8042     0.6583 H       
  73 H73            2.3516     5.3182     0.3665 H       
  74 H74            2.8810     2.5760     2.7027 H       
  75 H75            1.7277     3.1878     3.9123 H       
  76 H76           -0.1462     2.7589     2.3525 H       
  77 H77            0.7811     1.2678     2.6484 H       
  78 H78            8.2174    -8.6955     3.7272 H       
  79 H79            9.6980    -6.8794     4.4839 H       
  80 H80           12.0119    -6.7498     3.6518 H       
  81 H81           12.8431    -8.4326     2.0578 H       
  82 H82           -2.8627   -10.2616    -2.9772 H       
  83 H83           -3.6875    -8.7022    -2.7403 H       
  84 H84           -1.9944    -8.7393    -3.2885 H       
  85 H85           -0.6214   -11.6736     0.3338 H       
  86 H86           -1.6535   -11.8983    -1.0989 H       
  87 H87            0.1184   -11.9030    -1.2688 H       
  88 H88            2.9128     6.2768     2.4819 H       
  89 H89            2.6957     5.3299     3.9734 H       
  90 H90            3.9496     4.8651     2.7987 H       
@<TRIPOS>BOND
   1    1    2 1
   2    1   22 1
   3    1   50 1
   4    2    3 ar
   5    2    7 ar
   6    3    4 ar
   7    3   51 1
   8    4    5 ar
   9    4   52 1
  10    5    6 ar
  11    5    8 1
  12    6    7 ar
  13    6   53 1
  14    7   54 1
  15    8    9 1
  16    8   55 1
  17    9   10 ar
  18    9   14 ar
  19   10   11 ar
  20   11   12 ar
  21   11   15 1
  22   12   13 ar
  23   12   18 1
  24   13   14 ar
  25   13   56 1
  26   15   16 am
  27   15   19 1
  28   16   17 1
  29   16   20 2
  30   17   18 2
  31   17   21 1
  32   18   57 1
  33   19   23 1
  34   19   58 1
  35   19   59 1
  36   21   24 ar
  37   21   28 ar
  38   22   30 1
  39   22   38 1
  40   22   60 1
  41   23   39 1
  42   23   61 1
  43   23   62 1
  44   24   25 ar
  45   24   31 1
  46   25   26 ar
  47   25   63 1
  48   26   27 ar
  49   26   64 1
  50   27   28 ar
  51   27   29 1
  52   28   65 1
  53   29   32 1
  54   29   33 2
  55   30   35 1
  56   30   66 1
  57   30   67 1
  58   31   68 1
  59   31   69 1
  60   31   70 1
  61   32   40 ar
  62   32   34 ar
  63   34   43 ar
  64   34   71 1
  65   35   36 1
  66   35   72 1
  67   35   73 1
  68   36   37 1
  69   36   47 1
  70   37   38 1
  71   37   74 1
  72   37   75 1
  73   38   76 1
  74   38   77 1
  75   39   44 am
  76   39   46 1
  77   40   41 ar
  78   40   78 1
  79   41   42 ar
  80   41   79 1
  81   42   43 ar
  82   42   80 1
  83   43   81 1
  84   44   45 1
  85   44   48 2
  86   44   49 2
  87   45   82 1
  88   45   83 1
  89   45   84 1
  90   46   85 1
  91   46   86 1
  92   46   87 1
  93   47   88 1
  94   47   89 1
  95   47   90 1

#	End of record

