#	Name: ASD03081346
#	Creating user name:	WinNT
#	Creation time:	15. 06. 2019 20:27

#	Modifying user name:	WinNT
#	Modification time:	15. 06. 2019 20:27

#	Program:	/corina/corina34_cracker 3.40 0067  02.08.2006

@<TRIPOS>MOLECULE
ASD03081346
  30   32    0    0    0
SMALL
NO_CHARGES


@<TRIPOS>ATOM
   1 O1            -0.0162     1.3444     0.0094 O.3     
   2 C2             0.0021    -0.0041     0.0020 C.2     
   3 N3             1.2608    -0.3805    -0.0120 N.2     
   4 N4             2.0178     0.6598    -0.0137 N.2     
   5 C5             1.2726     1.7416    -0.0007 C.2     
   6 C6             0.8548     4.2023     0.0165 C.ar    
   7 C7             1.7574     3.1373     0.0021 C.ar    
   8 C8             3.1297     3.4143    -0.0090 C.ar    
   9 C9             3.5315     4.7385    -0.0053 C.ar    
  10 C10            2.5741     5.7366     0.0092 C.ar    
  11 N11            1.2870     5.4461     0.0194 N.ar    
  12 C12           -1.1767    -0.8944     0.0089 C.ar    
  13 C13           -2.4650    -0.3524     0.0246 C.ar    
  14 C14           -3.5650    -1.1874     0.0305 C.ar    
  15 C15           -3.3971    -2.5593     0.0210 C.ar    
  16 C16           -2.1197    -3.1084     0.0059 C.ar    
  17 C17           -1.0081    -2.2790    -0.0060 C.ar    
  18 S18           -1.9131    -4.8582    -0.0050 S.3     
  19 C19           -3.6205    -5.4708     0.0084 C.3     
  20 Cl20          -2.6822     1.3699     0.0372 Cl      
  21 H21           -0.2069     4.0044     0.0207 H       
  22 H22            3.8561     2.6151    -0.0199 H       
  23 H23            4.5818     4.9900    -0.0133 H       
  24 H24            2.8851     6.7708     0.0125 H       
  25 H25           -4.5597    -0.7670     0.0430 H       
  26 H26           -4.2612    -3.2072     0.0258 H       
  27 H27           -0.0153    -2.7037    -0.0226 H       
  28 H28           -3.6156    -6.5607     0.0028 H       
  29 H29           -4.1274    -5.1143     0.9052 H       
  30 H30           -4.1446    -5.1053    -0.8747 H       
@<TRIPOS>BOND
   1    1    2 1
   2    1    5 1
   3    2    3 2
   4    2   12 1
   5    3    4 1
   6    4    5 2
   7    5    7 1
   8    6    7 ar
   9    6   11 ar
  10    6   21 1
  11    7    8 ar
  12    8    9 ar
  13    8   22 1
  14    9   10 ar
  15    9   23 1
  16   10   11 ar
  17   10   24 1
  18   12   13 ar
  19   12   17 ar
  20   13   14 ar
  21   13   20 1
  22   14   15 ar
  23   14   25 1
  24   15   16 ar
  25   15   26 1
  26   16   17 ar
  27   16   18 1
  28   17   27 1
  29   18   19 1
  30   19   28 1
  31   19   29 1
  32   19   30 1

#	End of record

