#	Name: ASD02480002
#	Creating user name:	WinNT
#	Creation time:	15. 06. 2019 20:22

#	Modifying user name:	WinNT
#	Modification time:	15. 06. 2019 20:22

#	Program:	/corina/corina34_cracker 3.40 0067  02.08.2006

@<TRIPOS>MOLECULE
ASD02480002
  40   41    0    0    0
SMALL
NO_CHARGES


@<TRIPOS>ATOM
   1 C1            -0.0167     1.3814     0.0096 C.ar    
   2 C2             0.0021    -0.0041     0.0020 C.ar    
   3 C3             1.2075    -0.6872    -0.0132 C.ar    
   4 C4             2.3974     0.0081    -0.0204 C.ar    
   5 C5             2.3862     1.4070    -0.0128 C.ar    
   6 C6             1.1653     2.0900     0.0022 C.ar    
   7 Cl7           -1.4918    -0.8883     0.0122 Cl      
   8 C8             3.6520     2.1562    -0.0199 C.2     
   9 C9             3.6357     3.6631    -0.0117 C.3     
  10 O10            4.7086     1.5612    -0.0325 O.2     
  11 C11            5.0726     4.1886    -0.0216 C.3     
  12 C12            5.0571     5.6911    -0.1372 C.ar    
  13 S13            5.9024     3.7092     1.5187 S.3     
  14 C14            7.6056     4.2766     1.2583 C.3     
  15 C15            8.4362     3.9458     2.4714 C.2     
  16 O16            9.7373     4.2744     2.5038 O.3     
  17 O17            7.9311     3.3848     3.4148 O.2     
  18 C18            5.6704     6.3080    -1.2116 C.ar    
  19 C19            5.6562     7.6862    -1.3176 C.ar    
  20 C20            5.0285     8.4475    -0.3495 C.ar    
  21 C21            4.4144     7.8305     0.7244 C.ar    
  22 C22            4.4248     6.4521     0.8282 C.ar    
  23 C23           10.4757     3.9249     3.7042 C.3     
  24 H24           -0.9600     1.9074     0.0170 H       
  25 H25            1.2146    -1.7672    -0.0191 H       
  26 H26            3.3362    -0.5257    -0.0316 H       
  27 H27            1.1492     3.1698     0.0077 H       
  28 H28            3.1102     4.0256    -0.8951 H       
  29 H29            3.1259     4.0160     0.8847 H       
  30 H30            5.6088     3.7644    -0.8704 H       
  31 H31            8.0248     3.7787     0.3840 H       
  32 H32            7.6089     5.3549     1.0987 H       
  33 H33            6.1609     5.7132    -1.9679 H       
  34 H34            6.1360     8.1682    -2.1566 H       
  35 H35            5.0180     9.5243    -0.4320 H       
  36 H36            3.9243     8.4253     1.4809 H       
  37 H37            3.9451     5.9701     1.6672 H       
  38 H38           10.0267     4.4214     4.5645 H       
  39 H39           10.4426     2.8452     3.8498 H       
  40 H40           11.5121     4.2458     3.5996 H       
@<TRIPOS>BOND
   1    1    2 ar
   2    1    6 ar
   3    1   24 1
   4    2    3 ar
   5    2    7 1
   6    3    4 ar
   7    3   25 1
   8    4    5 ar
   9    4   26 1
  10    5    6 ar
  11    5    8 1
  12    6   27 1
  13    8    9 1
  14    8   10 2
  15    9   11 1
  16    9   28 1
  17    9   29 1
  18   11   12 1
  19   11   13 1
  20   11   30 1
  21   12   18 ar
  22   12   22 ar
  23   13   14 1
  24   14   15 1
  25   14   31 1
  26   14   32 1
  27   15   16 1
  28   15   17 2
  29   16   23 1
  30   18   19 ar
  31   18   33 1
  32   19   20 ar
  33   19   34 1
  34   20   21 ar
  35   20   35 1
  36   21   22 ar
  37   21   36 1
  38   22   37 1
  39   23   38 1
  40   23   39 1
  41   23   40 1

#	End of record

