#	Name: ASD01916726
#	Creating user name:	WinNT
#	Creation time:	15. 06. 2019 20:07

#	Modifying user name:	WinNT
#	Modification time:	15. 06. 2019 20:07

#	Program:	/corina/corina34_cracker 3.40 0067  02.08.2006

@<TRIPOS>MOLECULE
ASD01916726
  35   37    0    0    0
SMALL
NO_CHARGES


@<TRIPOS>ATOM
   1 O1            -0.0161     1.3378     0.0094 O.3     
   2 C2             0.0021    -0.0041     0.0020 C.2     
   3 N3             1.2268    -0.4375    -0.0120 N.2     
   4 C4             2.0700     0.6303    -0.0143 C.ar    
   5 C5             1.2625     1.7762    -0.0005 C.ar    
   6 C6             1.8507     3.0365     0.0007 C.ar    
   7 C7             3.2299     3.1513    -0.0119 C.ar    
   8 C8             4.0283     2.0179    -0.0256 C.ar    
   9 C9             3.4602     0.7635    -0.0276 C.ar    
  10 C10           -1.2225    -0.8823     0.0098 C.3     
  11 C11           -1.6223    -1.1873     1.4548 C.3     
  12 C12           -2.8185    -2.0451     1.4624 C.1     
  13 C13           -3.7725    -2.7293     1.4684 C.1     
  14 C14           -4.9362    -3.5638     1.4758 C.ar    
  15 C15           -5.4864    -3.9738     2.6908 C.ar    
  16 C16           -6.6108    -4.7799     2.6811 C.ar    
  17 C17           -7.1500    -5.1510     1.4570 C.ar    
  18 C18           -6.5537    -4.7087     0.2905 C.ar    
  19 N19           -5.4865    -3.9372     0.3263 N.ar    
  20 O20            1.0735     4.1519     0.0137 O.3     
  21 C21            1.7473     5.4120     0.0140 C.3     
  22 H22            3.6869     4.1298    -0.0113 H       
  23 H23            5.1035     2.1196    -0.0356 H       
  24 H24            4.0882    -0.1152    -0.0379 H       
  25 H25           -2.0416    -0.3681    -0.4930 H       
  26 H26           -1.0044    -1.8145    -0.5113 H       
  27 H27           -0.8032    -1.7015     1.9576 H       
  28 H28           -1.8404    -0.2551     1.9759 H       
  29 H29           -5.0408    -3.6665     3.6253 H       
  30 H30           -7.0589    -5.1133     3.6055 H       
  31 H31           -8.0270    -5.7799     1.4161 H       
  32 H32           -6.9711    -4.9964    -0.6631 H       
  33 H33            1.0124     6.2170     0.0250 H       
  34 H34            2.3799     5.4856     0.8986 H       
  35 H35            2.3635     5.4948    -0.8813 H       
@<TRIPOS>BOND
   1    1    2 1
   2    1    5 1
   3    2    3 2
   4    2   10 1
   5    3    4 1
   6    4    5 ar
   7    4    9 ar
   8    5    6 ar
   9    6    7 ar
  10    6   20 1
  11    7    8 ar
  12    7   22 1
  13    8    9 ar
  14    8   23 1
  15    9   24 1
  16   10   11 1
  17   10   25 1
  18   10   26 1
  19   11   12 1
  20   11   27 1
  21   11   28 1
  22   12   13 3
  23   13   14 1
  24   14   15 ar
  25   14   19 ar
  26   15   16 ar
  27   15   29 1
  28   16   17 ar
  29   16   30 1
  30   17   18 ar
  31   17   31 1
  32   18   19 ar
  33   18   32 1
  34   20   21 1
  35   21   33 1
  36   21   34 1
  37   21   35 1

#	End of record

