#	Name: ASD01811294
#	Creating user name:	WinNT
#	Creation time:	15. 06. 2019 19:26

#	Modifying user name:	WinNT
#	Modification time:	15. 06. 2019 19:26

#	Program:	/corina/corina34_cracker 3.40 0067  02.08.2006

@<TRIPOS>MOLECULE
ASD01811294
  59   63    0    0    0
SMALL
NO_CHARGES


@<TRIPOS>ATOM
   1 C1             5.8833    12.5617    -2.5138 C.1     
   2 C2             4.8012    11.7405    -2.0608 C.ar    
   3 C3             5.0375    10.4200    -1.6731 C.ar    
   4 C4             3.9905     9.6345    -1.2378 C.ar    
   5 C5             2.7084    10.1521    -1.1853 C.ar    
   6 C6             2.4670    11.4595    -1.5685 C.ar    
   7 C7             3.5059    12.2583    -1.9994 C.ar    
   8 N8             6.7418    13.2132    -2.8731 N.1     
   9 N9            -1.1412     8.7813    -0.0798 N.am    
  10 C10           -0.2068     9.0257     1.0274 C.3     
  11 C11            0.9279     9.9244     0.5258 C.3     
  12 C12            1.5695     9.2876    -0.7092 C.3     
  13 C13            0.5254     9.1619    -1.8210 C.3     
  14 C14           -0.6139     8.2546    -1.3460 C.3     
  15 C15           -2.4578     9.0302     0.0652 C.2     
  16 C16           -2.9928     9.4367     1.3823 C.ar    
  17 C17           -3.9653    10.4332     1.4653 C.ar    
  18 C18           -4.4620    10.8090     2.7039 C.ar    
  19 C19           -3.9906    10.1931     3.8578 C.ar    
  20 C20           -3.0271     9.2058     3.7752 C.ar    
  21 C21           -2.5304     8.8206     2.5463 C.ar    
  22 O22           -3.2055     8.9205    -0.8869 O.2     
  23 N23           -5.4364    11.8076     2.7927 N.pl3   
  24 O24           -6.6485    13.5651     1.6241 O.3     
  25 C25           -5.7971    12.5230     1.6669 C.2     
  26 N26           -5.3722    12.3116     0.4433 N.2     
  27 N27           -5.9144    13.1655    -0.3518 N.2     
  28 C28           -6.7062    13.9554     0.3318 C.2     
  29 C29           -8.3190    15.8368     0.6307 C.ar    
  30 C30           -7.5129    15.0680    -0.2109 C.ar    
  31 C31           -7.4816    15.3695    -1.5776 C.ar    
  32 C32           -8.2554    16.4218    -2.0350 C.ar    
  33 C33           -9.0276    17.1352    -1.1362 C.ar    
  34 N34           -9.0376    16.8285     0.1471 N.ar    
  35 C35           -4.5318    10.6037     5.2030 C.3     
  36 H36            6.0377    10.0146    -1.7143 H       
  37 H37            4.1718     8.6130    -0.9376 H       
  38 H38            1.4638    11.8571    -1.5254 H       
  39 H39            3.3169    13.2801    -2.2936 H       
  40 H40           -0.7307     9.5208     1.8451 H       
  41 H41            0.2041     8.0778     1.3748 H       
  42 H42            0.5275    10.9037     0.2637 H       
  43 H43            1.6777    10.0350     1.3091 H       
  44 H44            1.9474     8.2980    -0.4526 H       
  45 H45            0.1289    10.1484    -2.0610 H       
  46 H46            0.9888     8.7299    -2.7080 H       
  47 H47           -0.2361     7.2438    -1.1922 H       
  48 H48           -1.4063     8.2408    -2.0943 H       
  49 H49           -4.3298    10.9107     0.5677 H       
  50 H50           -2.6645     8.7311     4.6750 H       
  51 H51           -1.7808     8.0455     2.4857 H       
  52 H52           -5.8593    11.9982     3.6446 H       
  53 H53           -8.3570    15.6133     1.6867 H       
  54 H54           -6.8691    14.7960    -2.2575 H       
  55 H55           -8.2560    16.6834    -3.0828 H       
  56 H56           -9.6323    17.9568    -1.4906 H       
  57 H57           -5.3991     9.9907     5.4482 H       
  58 H58           -3.7621    10.4645     5.9621 H       
  59 H59           -4.8256    11.6529     5.1715 H       
@<TRIPOS>BOND
   1    1    2 1
   2    1    8 3
   3    2    3 ar
   4    2    7 ar
   5    3    4 ar
   6    3   36 1
   7    4    5 ar
   8    4   37 1
   9    5    6 ar
  10    5   12 1
  11    6    7 ar
  12    6   38 1
  13    7   39 1
  14    9   10 1
  15    9   14 1
  16    9   15 am
  17   10   11 1
  18   10   40 1
  19   10   41 1
  20   11   12 1
  21   11   42 1
  22   11   43 1
  23   12   13 1
  24   12   44 1
  25   13   14 1
  26   13   45 1
  27   13   46 1
  28   14   47 1
  29   14   48 1
  30   15   16 1
  31   15   22 2
  32   16   17 ar
  33   16   21 ar
  34   17   18 ar
  35   17   49 1
  36   18   19 ar
  37   18   23 1
  38   19   20 ar
  39   19   35 1
  40   20   21 ar
  41   20   50 1
  42   21   51 1
  43   23   25 1
  44   23   52 1
  45   24   25 1
  46   24   28 1
  47   25   26 2
  48   26   27 1
  49   27   28 2
  50   28   30 1
  51   29   30 ar
  52   29   34 ar
  53   29   53 1
  54   30   31 ar
  55   31   32 ar
  56   31   54 1
  57   32   33 ar
  58   32   55 1
  59   33   34 ar
  60   33   56 1
  61   35   57 1
  62   35   58 1
  63   35   59 1

#	End of record

