#	Name: ASD01911234
#	Creating user name:	WinNT
#	Creation time:	15. 06. 2019 19:57

#	Modifying user name:	WinNT
#	Modification time:	15. 06. 2019 19:57

#	Program:	/corina/corina34_cracker 3.40 0067  02.08.2006

@<TRIPOS>MOLECULE
ASD01911234
  48   51    0    0    0
SMALL
NO_CHARGES


@<TRIPOS>ATOM
   1 C1            -0.0187     1.5277     0.0104 C.3     
   2 C2             0.0021    -0.0041     0.0020 C.3     
   3 N3             0.8027    -0.4599    -1.1425 N.am    
   4 C4             2.1696     0.0559    -1.2987 C.3     
   5 C5             2.1245     1.5870    -1.2757 C.3     
   6 C6             1.4185     2.0534    -0.0005 C.3     
   7 C7             0.2931    -1.3348    -2.0321 C.2     
   8 O8             0.9641    -1.7034    -2.9727 O.2     
   9 C9            -1.1105    -1.8550    -1.8579 C.3     
  10 C10           -1.5418    -2.8430    -2.9546 C.3     
  11 C11           -2.2258    -3.6564    -1.8431 C.3     
  12 C12           -1.2143    -3.0287    -0.8696 C.3     
  13 C13            3.5293     2.1319    -1.3010 C.2     
  14 N14            4.0426     2.9175    -2.2147 N.2     
  15 C15            5.3172     3.1440    -1.8244 C.2     
  16 N16            5.5012     2.4892    -0.7076 N.2     
  17 O17            4.4838     1.9092    -0.3921 O.3     
  18 C18            6.3200     3.9792    -2.5315 C.ar    
  19 C19            7.6024     4.1228    -2.0086 C.ar    
  20 C20            8.5341     4.9034    -2.6736 C.ar    
  21 C21            8.1883     5.5397    -3.8575 C.ar    
  22 C22            6.9149     5.3976    -4.3767 C.ar    
  23 C23            5.9823     4.6172    -3.7236 C.ar    
  24 O24            9.7868     5.0464    -2.1662 O.3     
  25 C25           10.6960     5.8656    -2.9039 C.3     
  26 H26           -0.5451     1.8893    -0.8729 H       
  27 H27           -0.5281     1.8797     0.9075 H       
  28 H28            0.4474    -0.3686     0.9277 H       
  29 H29           -1.0158    -0.3828    -0.0901 H       
  30 H30            2.7916    -0.3037    -0.4790 H       
  31 H31            2.5818    -0.2833    -2.2490 H       
  32 H32            1.5780     1.9480    -2.1469 H       
  33 H33            1.4069     3.1429     0.0304 H       
  34 H34            1.9516     1.6714     0.8702 H       
  35 H35           -1.8360    -1.0625    -1.6744 H       
  36 H36           -2.2390    -2.4173    -3.6762 H       
  37 H37           -0.7080    -3.3632    -3.4262 H       
  38 H38           -3.2568    -3.3571    -1.6545 H       
  39 H39           -2.1109    -4.7343    -1.9571 H       
  40 H40           -0.2909    -3.5995    -0.7712 H       
  41 H41           -1.6471    -2.7528     0.0920 H       
  42 H42            7.8700     3.6274    -1.0871 H       
  43 H43            8.9159     6.1477    -4.3745 H       
  44 H44            6.6504     5.8951    -5.2981 H       
  45 H45            4.9885     4.5079    -4.1319 H       
  46 H46           10.8302     5.4507    -3.9029 H       
  47 H47           10.2941     6.8759    -2.9811 H       
  48 H48           11.6571     5.8951    -2.3906 H       
@<TRIPOS>BOND
   1    1    2 1
   2    1    6 1
   3    1   26 1
   4    1   27 1
   5    2    3 1
   6    2   28 1
   7    2   29 1
   8    3    4 1
   9    3    7 am
  10    4    5 1
  11    4   30 1
  12    4   31 1
  13    5    6 1
  14    5   13 1
  15    5   32 1
  16    6   33 1
  17    6   34 1
  18    7    8 2
  19    7    9 1
  20    9   10 1
  21    9   12 1
  22    9   35 1
  23   10   11 1
  24   10   36 1
  25   10   37 1
  26   11   12 1
  27   11   38 1
  28   11   39 1
  29   12   40 1
  30   12   41 1
  31   13   14 2
  32   13   17 1
  33   14   15 1
  34   15   16 2
  35   15   18 1
  36   16   17 1
  37   18   19 ar
  38   18   23 ar
  39   19   20 ar
  40   19   42 1
  41   20   21 ar
  42   20   24 1
  43   21   22 ar
  44   21   43 1
  45   22   23 ar
  46   22   44 1
  47   23   45 1
  48   24   25 1
  49   25   46 1
  50   25   47 1
  51   25   48 1

#	End of record

