#	Name: ASD03091668
#	Creating user name:	WinNT
#	Creation time:	15. 06. 2019 20:31

#	Modifying user name:	WinNT
#	Modification time:	15. 06. 2019 20:31

#	Program:	/corina/corina34_cracker 3.40 0067  02.08.2006

@<TRIPOS>MOLECULE
ASD03091668
  40   42    0    0    0
SMALL
NO_CHARGES


@<TRIPOS>ATOM
   1 Cl1            0.0000     0.0000     0.0000 Cl      
   2 H2             0.0000     1.3700     0.0000 H       
   3 C3            14.5225    10.3498     6.5682 C.ar    
   4 C4            14.5415     8.9497     6.5605 C.ar    
   5 C5            15.7636     8.2691     6.5451 C.ar    
   6 C6            16.9452     8.9698     6.5376 C.ar    
   7 C7            16.9331    10.3613     6.5456 C.ar    
   8 C8            15.7562    11.0446     6.5601 C.ar    
   9 S9            12.8912     8.3381     6.5735 S.3     
  10 C10           12.2352     9.9656     6.5888 C.2     
  11 C11           13.2189    10.8711     6.5891 C.2     
  12 C12           10.8013    10.2889     6.6047 C.2     
  13 O13           10.4397    11.4504     6.6141 O.2     
  14 N14            9.8872     9.2985     6.6090 N.am    
  15 N15            6.9514     8.8768     8.4059 N.3     
  16 C16            7.9996     9.8491     8.0681 C.3     
  17 C17            8.4581     9.6207     6.6249 C.3     
  18 C18            7.6612     8.4522     6.0314 C.3     
  19 C19            6.1682     8.7999     6.0873 C.3     
  20 C20            5.7731     9.0504     7.5453 C.3     
  21 C21            7.4621     7.5012     8.3272 C.3     
  22 C22            7.9059     7.2061     6.8917 C.3     
  23 F23           18.1009    11.0405     6.5390 F       
  24 H24           15.7781     7.1892     6.5396 H       
  25 H25           17.8859     8.4394     6.5258 H       
  26 H26           15.7634    12.1245     6.5655 H       
  27 H27           13.0236    11.9333     6.5975 H       
  28 H28           10.1755     8.3724     6.6015 H       
  29 H29            7.6040    10.8598     8.1683 H       
  30 H30            8.8458     9.7209     8.7431 H       
  31 H31            8.2782    10.5212     6.0376 H       
  32 H32            7.9666     8.2758     5.0000 H       
  33 H33            5.9800     9.6977     5.4985 H       
  34 H34            5.5848     7.9702     5.6882 H       
  35 H35            5.0000     8.3406     7.8397 H       
  36 H36            5.3930    10.0666     7.6497 H       
  37 H37            8.3117     7.3896     9.0008 H       
  38 H38            6.6751     6.8041     8.6152 H       
  39 H39            7.3295     6.3700     6.4958 H       
  40 H40            8.9672     6.9579     6.8813 H       
@<TRIPOS>BOND
   1    1    2 1
   2    3    4 ar
   3    3    8 ar
   4    3   11 1
   5    4    5 ar
   6    4    9 1
   7    5    6 ar
   8    5   24 1
   9    6    7 ar
  10    6   25 1
  11    7    8 ar
  12    7   23 1
  13    8   26 1
  14    9   10 1
  15   10   11 2
  16   10   12 1
  17   11   27 1
  18   12   13 2
  19   12   14 am
  20   14   17 1
  21   14   28 1
  22   15   16 1
  23   15   20 1
  24   15   21 1
  25   16   17 1
  26   16   29 1
  27   16   30 1
  28   17   18 1
  29   17   31 1
  30   18   19 1
  31   18   22 1
  32   18   32 1
  33   19   20 1
  34   19   33 1
  35   19   34 1
  36   20   35 1
  37   20   36 1
  38   21   22 1
  39   21   37 1
  40   21   38 1
  41   22   39 1
  42   22   40 1

#	End of record

