#	Name: ASD09116159
#	Creating user name:	WinNT
#	Creation time:	15. 06. 2019 21:20

#	Modifying user name:	WinNT
#	Modification time:	15. 06. 2019 21:20

#	Program:	/corina/corina34_cracker 3.40 0067  02.08.2006

@<TRIPOS>MOLECULE
ASD09116159
  81   88    0    0    0
SMALL
NO_CHARGES


@<TRIPOS>ATOM
   1 N1            -0.1885     1.8759     0.7184 N.2     
   2 C2            -0.2833     0.4319     0.9970 C.3     
   3 C3             1.0802     2.1379     0.5583 C.2     
   4 N4             1.8609     1.0466     0.6942 N.2     
   5 C5             1.1614    -0.0266     0.9563 C.2     
   6 N6             1.5705     3.3975     0.2789 N.pl3   
   7 C7             2.9539     3.6168     0.2334 C.ar    
   8 C8             3.4827     4.5921    -0.5979 C.ar    
   9 C9             3.8147     2.8606     1.0277 C.ar    
  10 C10            5.1723     3.1109     0.9506 C.ar    
  11 C11            5.6312     4.1019     0.0891 C.ar    
  12 N12            4.7844     4.8040    -0.6466 N.ar    
  13 N13            1.6309    -1.2881     1.1519 N.pl3   
  14 C14           -0.8792     0.1915     2.3601 C.ar    
  15 C15           -1.3654     1.2627     3.0813 C.ar    
  16 N16           -0.9287    -1.0457     2.8362 N.ar    
  17 C17           -1.4362    -1.2878     4.0087 C.ar    
  18 C18           -1.9471    -0.2616     4.8122 C.ar    
  19 C19           -1.9209     1.0451     4.3517 C.ar    
  20 C20           -1.5494    -2.6541     4.6596 C.3     
  21 C21           -0.8158    -2.5465     6.0123 C.3     
  22 C22           -1.3779    -1.3626     6.8023 C.3     
  23 N23           -2.4520    -0.6955     6.0405 N.3     
  24 C24           -3.5456    -1.6589     5.8060 C.3     
  25 C25           -2.4510     2.1644     5.1672 C.ar    
  26 N26            6.9966     4.3621     0.0042 N.3     
  27 C27            7.2480     5.7964    -0.1942 C.3     
  28 C28            8.7572     6.0507    -0.2025 C.3     
  29 N29            9.3792     5.2570    -1.2716 N.3     
  30 C30            9.1278     3.8228    -1.0731 C.3     
  31 C31            7.6186     3.5685    -1.0648 C.3     
  32 C32            6.1427     2.3202     1.7899 C.3     
  33 C33           10.8196     5.5316    -1.3611 C.3     
  34 C34           -1.6809     3.3085     5.3694 C.ar    
  35 C35           11.4743     4.5187    -2.3026 C.3     
  36 C36           12.9585     4.7079    -2.6220 C.3     
  37 C37           12.5127     3.5673    -1.7049 C.3     
  38 C38           -2.1796     4.3473     6.1289 C.ar    
  39 C39           -3.4410     4.2546     6.6891 C.ar    
  40 C40           -4.2096     3.1215     6.4918 C.ar    
  41 C41           -3.7234     2.0787     5.7297 C.ar    
  42 C42           -3.0440    -2.8504     4.9872 C.3     
  43 H43           -0.8705    -0.0702     0.2281 H       
  44 H44            0.9575     4.1310     0.1141 H       
  45 H45            2.8219     5.1849    -1.2130 H       
  46 H46            3.4300     2.0976     1.6881 H       
  47 H47            2.5834    -1.4643     1.1017 H       
  48 H48            1.0131    -2.0115     1.3417 H       
  49 H49           -1.3187     2.2609     2.6715 H       
  50 H50           -1.1448    -3.4474     4.0309 H       
  51 H51           -0.9631    -3.4652     6.5800 H       
  52 H52            0.2492    -2.3939     5.8371 H       
  53 H53           -1.7785    -1.7207     7.7506 H       
  54 H54           -0.5781    -0.6481     6.9972 H       
  55 H55           -3.9233    -2.0146     6.7646 H       
  56 H56           -4.3512    -1.1636     5.2640 H       
  57 H57            6.8208     6.1122    -1.1460 H       
  58 H58            6.7884     6.3617     0.6165 H       
  59 H59            8.9466     7.1095    -0.3785 H       
  60 H60            9.1803     5.7602     0.7591 H       
  61 H61            9.5874     3.2574    -1.8839 H       
  62 H62            9.5550     3.5070    -0.1214 H       
  63 H63            7.4292     2.5096    -0.8888 H       
  64 H64            7.1956     3.8590    -2.0265 H       
  65 H65            6.5136     1.4721     1.2144 H       
  66 H66            6.9787     2.9582     2.0767 H       
  67 H67            5.6376     1.9586     2.6856 H       
  68 H68           10.9741     6.5391    -1.7471 H       
  69 H69           11.2673     5.4493    -0.3707 H       
  70 H70           -0.6958     3.3818     4.9328 H       
  71 H71           10.8342     4.1319    -3.0955 H       
  72 H72           13.2950     4.4452    -3.6249 H       
  73 H73           13.4686     5.5540    -2.1614 H       
  74 H74           12.7295     3.6629    -0.6410 H       
  75 H75           12.5559     2.5541    -2.1045 H       
  76 H76           -1.5837     5.2341     6.2866 H       
  77 H77           -3.8270     5.0698     7.2831 H       
  78 H78           -5.1938     3.0546     6.9316 H       
  79 H79           -4.3244     1.1946     5.5763 H       
  80 H80           -3.6133    -2.9200     4.0603 H       
  81 H81           -3.1727    -3.7670     5.5629 H       
@<TRIPOS>BOND
   1    1    2 1
   2    1    3 2
   3    2   14 1
   4    2    5 1
   5    2   43 1
   6    3    4 1
   7    3    6 1
   8    4    5 2
   9    5   13 1
  10    6    7 1
  11    6   44 1
  12    7    8 ar
  13    7    9 ar
  14    8   12 ar
  15    8   45 1
  16    9   10 ar
  17    9   46 1
  18   10   11 ar
  19   10   32 1
  20   11   12 ar
  21   11   26 1
  22   13   47 1
  23   13   48 1
  24   14   15 ar
  25   14   16 ar
  26   15   19 ar
  27   15   49 1
  28   16   17 ar
  29   17   18 ar
  30   17   20 1
  31   18   19 ar
  32   18   23 1
  33   19   25 1
  34   20   21 1
  35   20   42 1
  36   20   50 1
  37   21   22 1
  38   21   51 1
  39   21   52 1
  40   22   23 1
  41   22   53 1
  42   22   54 1
  43   23   24 1
  44   24   42 1
  45   24   55 1
  46   24   56 1
  47   25   34 ar
  48   25   41 ar
  49   26   27 1
  50   26   31 1
  51   27   28 1
  52   27   57 1
  53   27   58 1
  54   28   29 1
  55   28   59 1
  56   28   60 1
  57   29   30 1
  58   29   33 1
  59   30   31 1
  60   30   61 1
  61   30   62 1
  62   31   63 1
  63   31   64 1
  64   32   65 1
  65   32   66 1
  66   32   67 1
  67   33   35 1
  68   33   68 1
  69   33   69 1
  70   34   38 ar
  71   34   70 1
  72   35   36 1
  73   35   37 1
  74   35   71 1
  75   36   37 1
  76   36   72 1
  77   36   73 1
  78   37   74 1
  79   37   75 1
  80   38   39 ar
  81   38   76 1
  82   39   40 ar
  83   39   77 1
  84   40   41 ar
  85   40   78 1
  86   41   79 1
  87   42   80 1
  88   42   81 1

#	End of record

