#	Name: ASD01900532
#	Creating user name:	WinNT
#	Creation time:	15. 06. 2019 19:52

#	Modifying user name:	WinNT
#	Modification time:	15. 06. 2019 19:52

#	Program:	/corina/corina34_cracker 3.40 0067  02.08.2006

@<TRIPOS>MOLECULE
ASD01900532
  26   28    0    0    0
SMALL
NO_CHARGES


@<TRIPOS>ATOM
   1 O1             0.0260     1.4080     0.3649 O.3     
   2 N2             0.0458    -0.0052     0.3609 N.2     
   3 C3             1.2468    -0.4255     0.0738 C.2     
   4 C4             2.0882     0.7639    -0.1280 C.ar    
   5 C5             1.2569     1.8761     0.0703 C.ar    
   6 C6             1.7842     3.1573    -0.0568 C.ar    
   7 C7             3.1165     3.3243    -0.3759 C.ar    
   8 C8             3.9379     2.2238    -0.5718 C.ar    
   9 C9             3.4335     0.9484    -0.4498 C.ar    
  10 N10            1.6549    -1.7491    -0.0227 N.pl3   
  11 F11            0.9932     4.2362     0.1314 F       
  12 C12            0.7160    -2.7802     0.0862 C.ar    
  13 C13           -0.5990    -2.5675    -0.3068 C.ar    
  14 C14           -1.5251    -3.5886    -0.1985 C.ar    
  15 C15           -1.1405    -4.8238     0.3022 C.ar    
  16 C16            0.1696    -5.0358     0.6942 C.ar    
  17 C17            1.0990    -4.0195     0.5821 C.ar    
  18 F18           -2.0460    -5.8208     0.4076 F       
  19 F19           -2.8048    -3.3832    -0.5799 F       
  20 H20            3.5228     4.3201    -0.4743 H       
  21 H21            4.9787     2.3681    -0.8215 H       
  22 H22            4.0764     0.0942    -0.6027 H       
  23 H23            2.5911    -1.9587    -0.1658 H       
  24 H24           -0.8980    -1.6056    -0.6961 H       
  25 H25            0.4670    -5.9980     1.0841 H       
  26 H26            2.1222    -4.1877     0.8839 H       
@<TRIPOS>BOND
   1    1    2 1
   2    1    5 1
   3    2    3 2
   4    3    4 1
   5    3   10 1
   6    4    5 ar
   7    4    9 ar
   8    5    6 ar
   9    6    7 ar
  10    6   11 1
  11    7    8 ar
  12    7   20 1
  13    8    9 ar
  14    8   21 1
  15    9   22 1
  16   10   12 1
  17   10   23 1
  18   12   13 ar
  19   12   17 ar
  20   13   14 ar
  21   13   24 1
  22   14   15 ar
  23   14   19 1
  24   15   16 ar
  25   15   18 1
  26   16   17 ar
  27   16   25 1
  28   17   26 1

#	End of record

