#	Name: ASD01916007
#	Creating user name:	WinNT
#	Creation time:	15. 06. 2019 20:06

#	Modifying user name:	WinNT
#	Modification time:	15. 06. 2019 20:06

#	Program:	/corina/corina34_cracker 3.40 0067  02.08.2006

@<TRIPOS>MOLECULE
ASD01916007
  35   37    0    0    0
SMALL
NO_CHARGES


@<TRIPOS>ATOM
   1 C1            -0.0169     1.3980     0.0097 C.ar    
   2 C2             0.0021    -0.0041     0.0020 C.ar    
   3 C3            -1.2044    -0.6765     0.0100 C.ar    
   4 C4            -2.3925     0.0556     0.0253 C.ar    
   5 C5            -3.6885    -0.6573     0.0344 C.2     
   6 N6            -4.8414     0.0406     0.0492 N.am    
   7 O7            -3.7138    -1.8726     0.0285 O.2     
   8 C8            -6.1250    -0.6655     0.0582 C.3     
   9 C9             1.2071     2.1411     0.0020 C.1     
  10 C10            2.2107     2.7503    -0.0043 C.1     
  11 C11            3.4348     3.4934    -0.0120 C.ar    
  12 C12            3.4078     4.8903    -0.0042 C.ar    
  13 C13            5.8376     3.5455    -0.0283 C.ar    
  14 C14            4.5931     5.6001    -0.0112 C.ar    
  15 N15           -2.3754     1.3842     0.0323 N.ar    
  16 C16           -1.2513     2.0615     0.0192 C.ar    
  17 C17            4.6622     2.8244    -0.0214 C.ar    
  18 C18            5.8054     4.9288    -0.0259 C.ar    
  19 F19            4.5702     6.9509    -0.0042 F       
  20 C20           -7.2796     0.1508     0.6692 C.3     
  21 O21           -8.0612    -0.3373    -0.4398 O.3     
  22 C22           -6.9021    -0.5604    -1.2676 C.3     
  23 H23            0.9369    -0.5448    -0.0102 H       
  24 H24           -1.2281    -1.7562     0.0040 H       
  25 H25           -4.8213     1.0104     0.0539 H       
  26 H26           -6.0498    -1.6809     0.4472 H       
  27 H27            2.4631     5.4137     0.0069 H       
  28 H28            6.7861     3.0290    -0.0395 H       
  29 H29           -1.2777     3.1411     0.0258 H       
  30 H30            4.6899     1.7448    -0.0230 H       
  31 H31            6.7294     5.4880    -0.0310 H       
  32 H32           -7.6139    -0.2162     1.6396 H       
  33 H33           -7.1152     1.2281     0.6525 H       
  34 H34           -6.6223     0.2999    -1.8758 H       
  35 H35           -6.9368    -1.4914    -1.8334 H       
@<TRIPOS>BOND
   1    1    2 ar
   2    1    9 1
   3    1   16 ar
   4    2    3 ar
   5    2   23 1
   6    3    4 ar
   7    3   24 1
   8    4   15 ar
   9    4    5 1
  10    5    6 am
  11    5    7 2
  12    6    8 1
  13    6   25 1
  14    8   20 1
  15    8   22 1
  16    8   26 1
  17    9   10 3
  18   10   11 1
  19   11   12 ar
  20   11   17 ar
  21   12   14 ar
  22   12   27 1
  23   13   18 ar
  24   13   17 ar
  25   13   28 1
  26   14   19 1
  27   14   18 ar
  28   15   16 ar
  29   16   29 1
  30   17   30 1
  31   18   31 1
  32   20   21 1
  33   20   32 1
  34   20   33 1
  35   21   22 1
  36   22   34 1
  37   22   35 1

#	End of record

