#	Name: ASD01911669
#	Creating user name:	WinNT
#	Creation time:	15. 06. 2019 19:58

#	Modifying user name:	WinNT
#	Modification time:	15. 06. 2019 19:58

#	Program:	/corina/corina34_cracker 3.40 0067  02.08.2006

@<TRIPOS>MOLECULE
ASD01911669
  29   30    0    0    0
SMALL
NO_CHARGES


@<TRIPOS>ATOM
   1 N1            -0.0162     1.3436     0.0094 N.am    
   2 C2             0.0021    -0.0041     0.0020 C.2     
   3 C3            -1.2553    -0.7530     0.0100 C.2     
   4 C4            -1.3801    -2.1173     0.0039 C.2     
   5 S5            -2.8749    -0.0583     0.0369 S.3     
   6 C6            -3.5678    -1.6775     0.0292 C.2     
   7 N7            -2.6034    -2.5642     0.0131 N.2     
   8 C8            -4.9678    -1.9782     0.0442 C.1     
   9 C9            -6.1156    -2.2247     0.0564 C.1     
  10 C10           -7.5156    -2.5254     0.0714 C.ar    
  11 C11           -7.9489    -3.8548     0.0633 C.ar    
  12 C12           -9.2987    -4.1363     0.0778 C.ar    
  13 C13          -10.2237    -3.1071     0.1003 C.ar    
  14 C14           -9.8026    -1.7887     0.1079 C.ar    
  15 C15           -8.4562    -1.4912     0.0999 C.ar    
  16 O16            1.0640    -0.5981    -0.0113 O.2     
  17 C17            1.1417     2.0332     0.0021 C.2     
  18 C18            1.1213     3.5401     0.0104 C.3     
  19 O19            2.1998     1.4414    -0.0112 O.2     
  20 H20           -0.8627     1.8171     0.0160 H       
  21 H21           -0.5242    -2.7759    -0.0082 H       
  22 H22           -7.2282    -4.6590     0.0455 H       
  23 H23           -9.6350    -5.1626     0.0713 H       
  24 H24          -11.2795    -3.3339     0.1115 H       
  25 H25          -10.5304    -0.9910     0.1251 H       
  26 H26           -8.1291    -0.4619     0.1059 H       
  27 H27            0.0888     3.8894     0.0221 H       
  28 H28            1.6386     3.9056     0.8974 H       
  29 H29            1.6216     3.9152    -0.8824 H       
@<TRIPOS>BOND
   1    1    2 am
   2    1   17 am
   3    1   20 1
   4    2    3 1
   5    2   16 2
   6    3    4 2
   7    3    5 1
   8    4    7 1
   9    4   21 1
  10    5    6 1
  11    6    7 2
  12    6    8 1
  13    8    9 3
  14    9   10 1
  15   10   11 ar
  16   10   15 ar
  17   11   12 ar
  18   11   22 1
  19   12   13 ar
  20   12   23 1
  21   13   14 ar
  22   13   24 1
  23   14   15 ar
  24   14   25 1
  25   15   26 1
  26   17   18 1
  27   17   19 2
  28   18   27 1
  29   18   28 1
  30   18   29 1

#	End of record

