#	Name: ASD01948332
#	Creating user name:	WinNT
#	Creation time:	15. 06. 2019 20:14

#	Modifying user name:	WinNT
#	Modification time:	15. 06. 2019 20:14

#	Program:	/corina/corina34_cracker 3.40 0067  02.08.2006

@<TRIPOS>MOLECULE
ASD01948332
  49   51    0    0    0
SMALL
NO_CHARGES


@<TRIPOS>ATOM
   1 C1             0.4192     1.9369    -0.0533 C.2     
   2 N2             0.5604     0.5982    -0.2727 N.am    
   3 C3             1.7780     0.0298    -0.3442 C.2     
   4 C4             2.8010     2.1688     0.0297 C.2     
   5 C5             1.5041     2.7321     0.0989 C.2     
   6 C6             3.3399     4.1901    -1.8154 C.ar    
   7 C7             4.1627     4.0152    -0.7113 C.ar    
   8 N8             3.9231     2.9657     0.1824 N.pl3   
   9 C9             3.5790     5.2271    -2.6967 C.ar    
  10 C10            4.6371     6.0909    -2.4808 C.ar    
  11 C11            5.4599     5.9210    -1.3813 C.ar    
  12 C12            5.2264     4.8856    -0.4956 C.ar    
  13 N13            1.3439     4.1092     0.3238 N.am    
  14 S14           -0.1751     4.7638     0.4040 S.o2    
  15 C15           -0.9049     4.0329     1.8952 C.3     
  16 O16            1.8777    -1.1717    -0.5420 O.2     
  17 C17           -0.6338    -0.2352    -0.4327 C.3     
  18 F18            6.0295     4.7194     0.5780 F       
  19 I19            4.9948     7.6609    -3.8211 I       
  20 O20            0.0518     6.1542     0.5900 O.2     
  21 O21           -0.8282     4.2775    -0.7606 O.2     
  22 C22            2.9295     0.8083    -0.1935 C.2     
  23 C23            4.2943     0.1742    -0.2727 C.3     
  24 C24           -2.3228     4.4661     2.2730 C.3     
  25 C25           -2.0758     3.0660     1.7076 C.3     
  26 C26            0.0735     3.7454     3.0358 C.3     
  27 C27            0.6746     5.0605     3.5358 C.3     
  28 O28            1.6627     4.7849     4.5306 O.3     
  29 H29           -0.5697     2.3684    -0.0048 H       
  30 H30            2.5161     3.5134    -1.9880 H       
  31 H31            4.5431     2.7963     0.9089 H       
  32 H32            2.9387     5.3630    -3.5558 H       
  33 H33            6.2857     6.5970    -1.2156 H       
  34 H34            2.1230     4.6768     0.4322 H       
  35 H35           -0.9114    -0.2738    -1.4861 H       
  36 H36           -0.4240    -1.2433    -0.0751 H       
  37 H37           -1.4545     0.1914     0.1439 H       
  38 H38            4.1880    -0.9069    -0.3624 H       
  39 H39            4.8246     0.5607    -1.1431 H       
  40 H40            4.8575     0.4102     0.6302 H       
  41 H41           -2.5587     4.5459     3.3342 H       
  42 H42           -2.8171     5.1903     1.6255 H       
  43 H43           -2.4075     2.8692     0.6882 H       
  44 H44           -2.1491     2.2248     2.3968 H       
  45 H45           -0.4550     3.2537     3.8526 H       
  46 H46            0.8708     3.0953     2.6755 H       
  47 H47            1.1363     5.5892     2.7018 H       
  48 H48           -0.1125     5.6791     3.9670 H       
  49 H49            2.0868     5.5747     4.8932 H       
@<TRIPOS>BOND
   1    1    2 1
   2    1    5 2
   3    1   29 1
   4    2    3 am
   5    2   17 1
   6    3   22 1
   7    3   16 2
   8    4    5 1
   9    4    8 1
  10    4   22 2
  11    5   13 1
  12    6    7 ar
  13    6    9 ar
  14    6   30 1
  15    7    8 1
  16    7   12 ar
  17    8   31 1
  18    9   10 ar
  19    9   32 1
  20   10   11 ar
  21   10   19 1
  22   11   12 ar
  23   11   33 1
  24   12   18 1
  25   13   14 am
  26   13   34 1
  27   14   15 1
  28   14   20 2
  29   14   21 2
  30   15   24 1
  31   15   26 1
  32   15   25 1
  33   17   35 1
  34   17   36 1
  35   17   37 1
  36   22   23 1
  37   23   38 1
  38   23   39 1
  39   23   40 1
  40   24   25 1
  41   24   41 1
  42   24   42 1
  43   25   43 1
  44   25   44 1
  45   26   27 1
  46   26   45 1
  47   26   46 1
  48   27   28 1
  49   27   47 1
  50   27   48 1
  51   28   49 1

#	End of record

