#	Name: ASD01940193
#	Creating user name:	WinNT
#	Creation time:	15. 06. 2019 20:11

#	Modifying user name:	WinNT
#	Modification time:	15. 06. 2019 20:11

#	Program:	/corina/corina34_cracker 3.40 0067  02.08.2006

@<TRIPOS>MOLECULE
ASD01940193
  55   57    0    0    0
SMALL
NO_CHARGES


@<TRIPOS>ATOM
   1 C1            -0.9181     2.7240     0.8124 C.ar    
   2 C2            -1.0879     3.0328    -0.5261 C.ar    
   3 C3            -2.2991     2.7834    -1.1495 C.ar    
   4 C4            -3.3463     2.2236    -0.4359 C.ar    
   5 C5            -3.1821     1.9114     0.9076 C.ar    
   6 C6            -1.9615     2.1574     1.5324 C.ar    
   7 N7            -1.7905     1.8440     2.8893 N.am    
   8 S8            -0.4896     0.9406     3.3729 S.o2    
   9 O9            -1.0657    -0.2306     3.9349 O.2     
  10 O10            0.3361     0.8694     2.2186 O.2     
  11 F11           -2.4600     3.0870    -2.4560 F       
  12 F12           -4.5269     1.9817    -1.0465 F       
  13 N13           -4.2403     1.3450     1.6316 N.pl3   
  14 C14           -4.4456    -0.0377     1.6033 C.ar    
  15 C15           -5.6752    -0.5682     1.9813 C.ar    
  16 C16           -3.4250    -0.8844     1.1925 C.ar    
  17 C17           -3.6309    -2.2506     1.1655 C.ar    
  18 C18           -4.8516    -2.7756     1.5466 C.ar    
  19 C19           -5.8736    -1.9359     1.9517 C.ar    
  20 F20           -6.6732     0.2519     2.3769 F       
  21 F21            0.2649     2.9688     1.4171 F       
  22 C22           -5.0715    -4.2662     1.5150 C.3     
  23 C23            0.3028     1.9416     4.6615 C.3     
  24 C24            0.5994     3.3441     4.1269 C.3     
  25 C25           -0.6111     2.0306     5.8963 C.3     
  26 C26            1.6093     1.2661     5.1268 C.3     
  27 C27            1.6576     1.5413     6.6502 C.3     
  28 C28            0.1713     1.4055     7.0696 C.3     
  29 C29            1.0552     4.2429     5.2781 C.3     
  30 C30            1.2319     5.6746     4.7681 C.3     
  31 O31            1.6576     6.5141     5.8433 O.3     
  32 H32           -0.2740     3.4696    -1.0856 H       
  33 H33           -2.4343     2.1564     3.5442 H       
  34 H34           -4.8302     1.9123     2.1523 H       
  35 H35           -2.4710    -0.4757     0.8938 H       
  36 H36           -2.8369    -2.9092     0.8460 H       
  37 H37           -6.8261    -2.3495     2.2487 H       
  38 H38           -4.7918    -4.6951     2.4772 H       
  39 H39           -6.1228    -4.4743     1.3162 H       
  40 H40           -4.4588    -4.7072     0.7288 H       
  41 H41            1.3876     3.2875     3.3761 H       
  42 H42           -0.3021     3.7595     3.6766 H       
  43 H43           -0.8426     3.0730     6.1151 H       
  44 H44           -1.5308     1.4723     5.7212 H       
  45 H45            1.5742     0.1939     4.9337 H       
  46 H46            2.4691     1.7161     4.6304 H       
  47 H47            2.2724     0.7979     7.1577 H       
  48 H48            2.0240     2.5483     6.8495 H       
  49 H49           -0.0173     1.9569     7.9908 H       
  50 H50           -0.0966     0.3558     7.1906 H       
  51 H51            0.3051     4.2289     6.0688 H       
  52 H52            2.0040     3.8774     5.6707 H       
  53 H53            1.9819     5.6886     3.9774 H       
  54 H54            0.2831     6.0401     4.3755 H       
  55 H55            1.7899     7.4384     5.5920 H       
@<TRIPOS>BOND
   1    1    2 ar
   2    1   21 1
   3    1    6 ar
   4    2    3 ar
   5    2   32 1
   6    3    4 ar
   7    3   11 1
   8    4    5 ar
   9    4   12 1
  10    5    6 ar
  11    5   13 1
  12    6    7 1
  13    7    8 am
  14    7   33 1
  15    8    9 2
  16    8   10 2
  17    8   23 1
  18   13   14 1
  19   13   34 1
  20   14   15 ar
  21   14   16 ar
  22   15   20 1
  23   15   19 ar
  24   16   17 ar
  25   16   35 1
  26   17   18 ar
  27   17   36 1
  28   18   19 ar
  29   18   22 1
  30   19   37 1
  31   22   38 1
  32   22   39 1
  33   22   40 1
  34   23   24 1
  35   23   25 1
  36   23   26 1
  37   24   29 1
  38   24   41 1
  39   24   42 1
  40   25   28 1
  41   25   43 1
  42   25   44 1
  43   26   27 1
  44   26   45 1
  45   26   46 1
  46   27   28 1
  47   27   47 1
  48   27   48 1
  49   28   49 1
  50   28   50 1
  51   29   30 1
  52   29   51 1
  53   29   52 1
  54   30   31 1
  55   30   53 1
  56   30   54 1
  57   31   55 1

#	End of record

