#	Name: ASD01028838
#	Creating user name:	WinNT
#	Creation time:	15. 06. 2019 18:58

#	Modifying user name:	WinNT
#	Modification time:	15. 06. 2019 18:58

#	Program:	/corina/corina34_cracker 3.40 0067  02.08.2006

@<TRIPOS>MOLECULE
ASD01028838
  41   45    0    0    0
SMALL
NO_CHARGES


@<TRIPOS>ATOM
   1 C1            -0.0157     1.3069     0.0092 C.ar    
   2 N2             0.0021    -0.0041     0.0020 N.ar    
   3 C3             1.1586     2.0559     0.0020 C.ar    
   4 C4             2.3699     1.4244    -0.0129 C.ar    
   5 C5             2.3850     0.0172    -0.0207 C.ar    
   6 C6             1.1531    -0.6832    -0.0126 C.ar    
   7 C7             3.5917    -0.7011    -0.0355 C.ar    
   8 C8             3.5643    -2.0621    -0.0422 C.ar    
   9 C9             2.3540    -2.7531    -0.0344 C.ar    
  10 C10            1.1663    -2.0891    -0.0204 C.ar    
  11 C11            4.8598    -2.8318    -0.0587 C.3     
  12 C12            5.3054    -3.0956     1.3566 C.2     
  13 N13            6.4215    -3.7585     1.7305 N.pl3   
  14 C14            6.4213    -3.7564     3.1052 C.2     
  15 N15            5.3325    -3.1088     3.4868 N.2     
  16 N16            4.6833    -2.7186     2.4458 N.2     
  17 N17            7.4600    -4.3772     1.0315 N.2     
  18 C18            8.4440    -4.9615     1.6788 C.2     
  19 C19            8.4718    -4.9766     3.0896 C.2     
  20 C20            7.4755    -4.3820     3.7974 C.2     
  21 C21            9.5375    -5.6130     0.9171 C.ar    
  22 F22            4.6708    -4.0487    -0.7226 F       
  23 F23            5.8377    -2.0846    -0.7239 F       
  24 C24            9.5195    -5.6043    -0.4763 C.ar    
  25 C25           10.5401    -6.2118    -1.1826 C.ar    
  26 C26           11.5816    -6.8298    -0.5063 C.ar    
  27 C27           11.6025    -6.8408     0.8805 C.ar    
  28 C28           10.5882    -6.2302     1.5933 C.ar    
  29 F29           12.5778    -7.4227    -1.2001 F       
  30 F30           10.5233    -6.2042    -2.5335 F       
  31 F31           12.6186    -7.4442     1.5352 F       
  32 H32           -0.9662     1.8197     0.0165 H       
  33 H33            1.1116     3.1349     0.0079 H       
  34 H34            3.2903     1.9894    -0.0191 H       
  35 H35            4.5358    -0.1768    -0.0420 H       
  36 H36            2.3588    -3.8330    -0.0400 H       
  37 H37            0.2374    -2.6400    -0.0144 H       
  38 H38            9.2864    -5.4608     3.6077 H       
  39 H39            7.4916    -4.3906     4.8772 H       
  40 H40            8.7087    -5.1237    -1.0036 H       
  41 H41           10.6053    -6.2389     2.6731 H       
@<TRIPOS>BOND
   1    1    2 ar
   2    1    3 ar
   3    1   32 1
   4    2    6 ar
   5    3    4 ar
   6    3   33 1
   7    4    5 ar
   8    4   34 1
   9    5    6 ar
  10    5    7 ar
  11    6   10 ar
  12    7    8 ar
  13    7   35 1
  14    8    9 ar
  15    8   11 1
  16    9   10 ar
  17    9   36 1
  18   10   37 1
  19   11   12 1
  20   11   22 1
  21   11   23 1
  22   12   13 1
  23   12   16 2
  24   13   14 1
  25   13   17 1
  26   14   15 2
  27   14   20 1
  28   15   16 1
  29   17   18 2
  30   18   19 1
  31   18   21 1
  32   19   20 2
  33   19   38 1
  34   20   39 1
  35   21   24 ar
  36   21   28 ar
  37   24   25 ar
  38   24   40 1
  39   25   26 ar
  40   25   30 1
  41   26   27 ar
  42   26   29 1
  43   27   28 ar
  44   27   31 1
  45   28   41 1

#	End of record

