#	Name: ASD03331374
#	Creating user name:	WinNT
#	Creation time:	15. 06. 2019 20:39

#	Modifying user name:	WinNT
#	Modification time:	15. 06. 2019 20:39

#	Program:	/corina/corina34_cracker 3.40 0067  02.08.2006

@<TRIPOS>MOLECULE
ASD03331374
  57   59    0    0    0
SMALL
NO_CHARGES


@<TRIPOS>ATOM
   1 N1             0.3289     0.8064    -0.3575 N.2     
   2 N2             0.1688    -0.5840    -0.2476 N.am    
   3 C3             1.4002    -1.1464    -0.2662 C.2     
   4 C4             2.3113    -0.1490    -0.3821 C.2     
   5 C5             1.6182     1.0686    -0.4387 C.2     
   6 C6             1.7809    -2.6033    -0.1809 C.3     
   7 C7             3.7985    -0.3985    -0.4317 C.3     
   8 C8             4.0483    -1.8317     0.0606 C.3     
   9 O9             3.1482    -2.7287    -0.5951 O.3     
  10 C10           -1.0027    -1.2420    -0.1415 C.2     
  11 O11           -1.0129    -2.4536    -0.0517 O.2     
  12 N12           -2.1628    -0.5560    -0.1352 N.am    
  13 C13           -4.5357    -0.4408    -0.6300 C.2     
  14 C14           -3.4361    -1.2712    -0.0199 C.3     
  15 C15           -3.7472    -1.5239     1.4566 C.3     
  16 C16           -3.8454    -0.1866     2.1933 C.3     
  17 O17           -4.3775     0.7508    -0.7912 O.2     
  18 C18           -5.0768    -2.2713     1.5770 C.3     
  19 C19           -2.6306    -2.3667     2.0761 C.3     
  20 N20           -5.6950    -1.0223    -0.9965 N.am    
  21 C21           -6.7960    -0.2024    -1.5083 C.3     
  22 C22           -7.9862    -1.1017    -1.8485 C.3     
  23 O23           -8.4865    -1.7024    -0.6523 O.3     
  24 C24            2.2285     2.4149    -0.5670 C.ar    
  25 C25            1.5834     3.4072    -1.3028 C.ar    
  26 C26            2.1556     4.6592    -1.4194 C.ar    
  27 C27            3.3708     4.9280    -0.8053 C.ar    
  28 C28            4.0137     3.9435    -0.0741 C.ar    
  29 C29            3.4452     2.6921     0.0526 C.ar    
  30 F30            3.9280     6.1532    -0.9215 F       
  31 F31            1.5319     5.6226    -2.1323 F       
  32 H32            1.6734    -2.9527     0.8459 H       
  33 H33            1.1410    -3.1905    -0.8396 H       
  34 H34            4.1571    -0.2917    -1.4555 H       
  35 H35            4.3139     0.3100     0.2168 H       
  36 H36            5.0753    -2.1190    -0.1648 H       
  37 H37            3.8869    -1.8788     1.1375 H       
  38 H38           -2.1546     0.4113    -0.2069 H       
  39 H39           -3.3665    -2.2240    -0.5448 H       
  40 H40           -4.6409     0.4138     1.7520 H       
  41 H41           -4.0670    -0.3666     3.2453 H       
  42 H42           -2.8981     0.3458     2.1076 H       
  43 H43           -5.0019    -3.2308     1.0652 H       
  44 H44           -5.3060    -2.4378     2.6295 H       
  45 H45           -5.8698    -1.6777     1.1220 H       
  46 H46           -1.6833    -1.8343     1.9904 H       
  47 H47           -2.8522    -2.5468     3.1281 H       
  48 H48           -2.5606    -3.3195     1.5513 H       
  49 H49           -5.8004    -1.9836    -0.9214 H       
  50 H50           -7.0929     0.5217    -0.7496 H       
  51 H51           -6.4704     0.3241    -2.4054 H       
  52 H52           -8.7719    -0.5048    -2.3115 H       
  53 H53           -7.6666    -1.8811    -2.5403 H       
  54 H54           -9.2437    -2.2872    -0.7929 H       
  55 H55            0.6381     3.1977    -1.7813 H       
  56 H56            4.9594     4.1567     0.4020 H       
  57 H57            3.9458     1.9268     0.6273 H       
@<TRIPOS>BOND
   1    1    2 1
   2    1    5 2
   3    2    3 1
   4    2   10 am
   5    3    4 2
   6    3    6 1
   7    4    5 1
   8    4    7 1
   9    5   24 1
  10    6    9 1
  11    6   32 1
  12    6   33 1
  13    7    8 1
  14    7   34 1
  15    7   35 1
  16    8    9 1
  17    8   36 1
  18    8   37 1
  19   10   11 2
  20   10   12 am
  21   12   14 1
  22   12   38 1
  23   13   17 2
  24   13   20 am
  25   13   14 1
  26   14   15 1
  27   14   39 1
  28   15   16 1
  29   15   18 1
  30   15   19 1
  31   16   40 1
  32   16   41 1
  33   16   42 1
  34   18   43 1
  35   18   44 1
  36   18   45 1
  37   19   46 1
  38   19   47 1
  39   19   48 1
  40   20   21 1
  41   20   49 1
  42   21   22 1
  43   21   50 1
  44   21   51 1
  45   22   23 1
  46   22   52 1
  47   22   53 1
  48   23   54 1
  49   24   25 ar
  50   24   29 ar
  51   25   26 ar
  52   25   55 1
  53   26   27 ar
  54   26   31 1
  55   27   28 ar
  56   27   30 1
  57   28   29 ar
  58   28   56 1
  59   29   57 1

#	End of record

