#	Name: ASD02580003
#	Creating user name:	WinNT
#	Creation time:	15. 06. 2019 20:25

#	Modifying user name:	WinNT
#	Modification time:	15. 06. 2019 20:25

#	Program:	/corina/corina34_cracker 3.40 0067  02.08.2006

@<TRIPOS>MOLECULE
ASD02580003
  42   43    0    0    0
SMALL
NO_CHARGES


@<TRIPOS>ATOM
   1 C1            -0.0173     1.4248     0.0099 C.3     
   2 C2             1.4181     1.9544    -0.0010 C.3     
   3 C3             1.4245     3.4933     0.1334 C.3     
   4 C4             2.5832     3.9454    -0.7833 C.3     
   5 C5             3.1397     2.6261    -1.3632 C.3     
   6 O6             2.0408     1.6928    -1.2776 O.3     
   7 N7             3.5429     2.8126    -2.7592 N.am    
   8 C8             2.6134     3.0996    -3.6886 C.2     
   9 O9             1.4475     3.2014    -3.3588 O.2     
  10 N10            2.9559     3.2759    -4.9783 N.am    
  11 C11            4.2445     3.1668    -5.3602 C.2     
  12 O12            4.5553     3.3265    -6.5267 O.2     
  13 C13            5.2327     2.8652    -4.3923 C.2     
  14 C14            6.6799     2.7377    -4.7928 C.3     
  15 C15            4.8620     2.6988    -3.1047 C.2     
  16 P16           -1.3361    -0.8992     0.0100 P.3     
  17 O17           -2.2400    -0.4847    -1.1724 O.co2   
  18 O18            0.0021    -0.0041     0.0020 O.3     
  19 O19           -1.2680    -7.3438    -1.2357 O.3     
  20 O20           -2.0938    -0.6810     1.3386 O.co2   
  21 O21           -0.9428    -2.4537    -0.1344 O.3     
  22 P22           -1.7459    -3.7731    -0.5887 P.3     
  23 O23           -3.1783    -3.7283    -0.0115 O.co2   
  24 O24           -1.8138    -3.8290    -2.1312 O.co2   
  25 O25           -0.9857    -5.0807    -0.0372 O.3     
  26 P26           -1.3983    -6.6282     0.1274 P.3     
  27 O27           -2.8595    -6.7219     0.6206 O.2     
  28 O28           -0.4242    -7.3324     1.1985 O.3     
  29 H29           -0.5275     1.7763     0.9067 H       
  30 H30           -0.5445     1.7859    -0.8732 H       
  31 H31            1.9953     1.5007     0.8047 H       
  32 H32            0.4789     3.9108    -0.2122 H       
  33 H33            1.6178     3.7857     1.1656 H       
  34 H34            2.2103     4.5864    -1.5821 H       
  35 H35            3.3492     4.4613    -0.2044 H       
  36 H36            3.9826     2.2755    -0.7675 H       
  37 H37            2.2730     3.4820    -5.6356 H       
  38 H38            6.7767     2.9098    -5.8648 H       
  39 H39            7.2730     3.4747    -4.2515 H       
  40 H40            7.0367     1.7363    -4.5519 H       
  41 H41            5.6025     2.4729    -2.3517 H       
  42 H42           -0.6153    -8.2684     1.3482 H       
@<TRIPOS>BOND
   1    1   18 1
   2    1    2 1
   3    1   29 1
   4    1   30 1
   5    2    3 1
   6    2    6 1
   7    2   31 1
   8    3    4 1
   9    3   32 1
  10    3   33 1
  11    4    5 1
  12    4   34 1
  13    4   35 1
  14    5    6 1
  15    5    7 1
  16    5   36 1
  17    7    8 am
  18    7   15 1
  19    8    9 2
  20    8   10 am
  21   10   11 am
  22   10   37 1
  23   11   12 2
  24   11   13 1
  25   13   14 1
  26   13   15 2
  27   14   38 1
  28   14   39 1
  29   14   40 1
  30   15   41 1
  31   16   17 ar
  32   16   18 1
  33   16   20 ar
  34   16   21 1
  35   19   26 1
  36   21   22 1
  37   22   23 ar
  38   22   24 ar
  39   22   25 1
  40   25   26 1
  41   26   27 2
  42   26   28 1
  43   28   42 1

#	End of record

