#	Name: ASD07110002
#	Creating user name:	WinNT
#	Creation time:	15. 06. 2019 21:08

#	Modifying user name:	WinNT
#	Modification time:	15. 06. 2019 21:08

#	Program:	/corina/corina34_cracker 3.40 0067  02.08.2006

@<TRIPOS>MOLECULE
ASD07110002
 429  436    0    0    0
SMALL
NO_CHARGES


@<TRIPOS>ATOM
   1 C1            -5.2046     4.1853    26.2446 C.2     
   2 O2            -4.8219     3.0858    25.9045 O.2     
   3 N3            -2.9063     4.6446    26.8864 N.3     
   4 C4            -4.2039     5.2612    26.5795 C.3     
   5 C5            -4.0504     6.2047    25.3849 C.3     
   6 C6            -3.1307     7.3661    25.7671 C.3     
   7 C7            -2.9772     8.3096    24.5725 C.3     
   8 C8            -2.0575     9.4710    24.9548 C.3     
   9 N9            -1.9101    10.3769    23.8078 N.3     
  10 C10           -8.7902     4.0412    25.5479 C.2     
  11 O11           -8.8892     5.2495    25.5156 O.2     
  12 N12           -6.5248     4.4466    26.3176 N.am    
  13 C13           -7.4975     3.4025    25.9861 C.3     
  14 C14           -7.7509     2.5318    27.2184 C.3     
  15 C15           -6.4865     1.7974    27.5832 C.2     
  16 C16           -6.1513     0.5517    27.2120 C.2     
  17 N17           -4.9297     0.2223    27.7330 N.pl3   
  18 C18           -4.4364     1.2749    28.4711 C.ar    
  19 C19           -3.2662     1.4702    29.1969 C.ar    
  20 C20           -3.0545     2.6677    29.8448 C.ar    
  21 C21           -3.9982     3.6834    29.7810 C.ar    
  22 C22           -5.1552     3.5127    29.0740 C.ar    
  23 C23           -5.3873     2.3098    28.4049 C.ar    
  24 C24          -12.2334     2.9364    25.0118 C.2     
  25 O25          -12.0291     1.7412    25.0382 O.2     
  26 N26           -9.8363     3.2696    25.1919 N.am    
  27 C27          -11.0930     3.8904    24.7659 C.3     
  28 C28          -11.0181     4.2219    23.2741 C.3     
  29 C29           -9.9724     5.2831    23.0473 C.ar    
  30 C30           -8.6625     4.9187    22.7961 C.ar    
  31 C31           -7.7020     5.8896    22.5883 C.ar    
  32 C32           -8.0527     7.2311    22.6312 C.ar    
  33 O33           -7.1097     8.1881    22.4267 O.3     
  34 C34           -9.3678     7.5941    22.8830 C.ar    
  35 C35          -10.3256     6.6194    23.0850 C.ar    
  36 C36          -14.8964     1.7545    24.1120 C.2     
  37 O37          -14.1052     1.8234    23.1954 O.2     
  38 N38          -13.4802     3.4113    25.2024 N.am    
  39 C39          -14.6951     2.5959    25.3460 C.3     
  40 C40          -15.8815     3.5677    25.5180 C.3     
  41 C41          -15.3455     4.8840    24.8957 C.3     
  42 C42          -13.8508     4.8343    25.3079 C.3     
  43 C43          -17.3984    -0.7239    22.9845 C.2     
  44 O44          -18.0586    -0.6415    23.9985 O.2     
  45 N45          -15.9557     0.9255    24.0271 N.am    
  46 C46          -16.1514     0.1076    22.8275 C.3     
  47 C47          -18.8887    -3.5965    21.2844 C.2     
  48 O48          -17.8998    -3.7791    20.6064 O.2     
  49 N49          -17.7799    -1.5592    21.9980 N.am    
  50 C50          -18.9921    -2.3677    22.1506 C.3     
  51 C51          -20.2103    -1.5453    21.7258 C.3     
  52 S52          -20.3348    -0.0661    22.7684 S.3     
  53 C53          -21.1776    -6.1810    20.0825 C.2     
  54 O54          -22.1513    -5.5928    20.5031 O.2     
  55 N55          -19.8951    -4.4927    21.2632 N.am    
  56 C56          -19.7946    -5.6873    20.4212 C.3     
  57 C57          -19.0334    -6.7798    21.1747 C.3     
  58 C58          -17.5908    -6.3272    21.4090 C.3     
  59 C59          -16.8295    -7.4197    22.1625 C.3     
  60 C60          -15.3869    -6.9672    22.3969 C.3     
  61 N61          -14.6560    -8.0161    23.1203 N.3     
  62 C62          -22.6231    -9.2309    18.6784 C.2     
  63 O63          -21.5659    -9.8228    18.7310 O.2     
  64 N64          -21.3324    -7.2760    19.3123 N.am    
  65 C65          -22.6768    -7.7560    18.9831 C.3     
  66 C66          -23.2025    -7.0014    17.7603 C.3     
  67 C67          -23.3726    -5.5441    18.1041 C.ar    
  68 C68          -22.3253    -4.6624    17.9101 C.ar    
  69 C69          -22.4785    -3.3261    18.2249 C.ar    
  70 C70          -23.6845    -2.8688    18.7358 C.ar    
  71 O71          -23.8378    -1.5546    19.0459 O.3     
  72 C72          -24.7340    -3.7554    18.9292 C.ar    
  73 C73          -24.5774    -5.0898    18.6079 C.ar    
  74 C74          -24.8515   -11.6961    17.1553 C.2     
  75 O75          -25.6399   -10.8460    16.7993 O.2     
  76 N76          -23.7499    -9.8921    18.3474 N.am    
  77 C77          -23.6977   -11.3259    18.0512 C.3     
  78 C78          -23.7898   -12.1199    19.3558 C.3     
  79 C79          -22.5538   -11.8382    20.2125 C.3     
  80 C80          -22.7037   -12.5325    21.5677 C.3     
  81 C81          -21.3082   -12.3710    19.5015 C.3     
  82 C82          -26.4553   -14.7922    16.0575 C.2     
  83 O83          -25.8140   -15.4660    16.8357 O.2     
  84 N84          -25.0074   -12.9719    16.7497 N.am    
  85 C85          -26.1291   -13.3318    15.8788 C.3     
  86 C86          -25.7473   -13.0693    14.4206 C.3     
  87 C87          -25.5373   -11.5684    14.2108 C.3     
  88 C88          -25.0351   -11.3178    12.7874 C.3     
  89 C89          -26.8628   -10.8337    14.4207 C.3     
  90 C90          -28.4474   -17.2901    14.2812 C.2     
  91 O91          -28.6412   -16.5485    13.3413 O.2     
  92 N92          -27.4598   -15.3495    15.3525 N.am    
  93 C93          -27.7769   -16.7691    15.5262 C.3     
  94 C94          -28.7173   -16.9391    16.7211 C.3     
  95 C95          -27.9922   -16.5265    18.0036 C.3     
  96 C96          -28.9184   -16.6939    19.1805 C.2     
  97 O97          -30.0431   -17.1015    19.0108 O.2     
  98 O98          -28.4939   -16.3903    20.4171 O.3     
  99 C99          -30.3361   -20.2788    13.3518 C.2     
 100 O100         -30.3936   -20.6673    14.4993 O.2     
 101 N101         -28.8316   -18.5801    14.2122 N.am    
 102 C102         -29.4834   -19.0865    13.0018 C.3     
 103 C103         -28.4185   -19.5020    11.9849 C.3     
 104 C104         -27.6333   -18.2680    11.5357 C.3     
 105 C105         -26.5844   -18.6772    10.5340 C.2     
 106 O106         -26.4756   -19.8412    10.2112 O.2     
 107 N107         -25.7673   -17.7497     9.9969 N.am    
 108 C108         -32.0304   -22.9454    11.5129 C.2     
 109 O109         -31.5083   -22.6303    10.4645 O.2     
 110 N110         -31.0346   -20.9134    12.3897 N.am    
 111 C111         -31.8635   -22.0725    12.7300 C.3     
 112 C112         -33.2365   -21.5951    13.2073 C.3     
 113 C113         -33.0790   -20.8129    14.5128 C.3     
 114 C114         -34.4520   -20.3356    14.9902 C.3     
 115 C115         -34.2945   -19.5534    16.2956 C.3     
 116 N116         -35.6128   -19.0950    16.7540 N.3     
 117 C117         -33.7745   -26.1170    10.7563 C.2     
 118 O118         -34.2044   -26.2453    11.8831 O.2     
 119 N119         -32.7597   -24.0761    11.5895 N.am    
 120 C120         -32.9219   -24.9247    10.4063 C.3     
 121 C121         -34.5735   -29.3355     9.2182 C.2     
 122 O122         -33.7390   -29.1910     8.3501 O.2     
 123 N123         -34.0594   -27.0407     9.8171 N.am    
 124 C124         -34.8883   -28.1998    10.1574 C.3     
 125 C125         -36.3661   -27.8256    10.0279 C.3     
 126 C126         -36.7152   -26.7591    11.0679 C.3     
 127 C127         -38.1709   -26.3905    10.9403 C.2     
 128 O128         -38.8611   -26.9279    10.1003 O.2     
 129 N129         -38.7056   -25.4636    11.7597 N.am    
 130 C130         -36.1018   -32.5383     8.3410 C.2     
 131 O131         -37.1055   -32.2972     8.9776 O.2     
 132 N132         -35.2194   -30.5119     9.3429 N.am    
 133 C133         -34.9134   -31.6159     8.4299 C.3     
 134 C134         -33.7038   -32.3918     8.9552 C.3     
 135 C135         -32.4683   -31.4897     8.9279 C.3     
 136 C136         -31.2769   -32.2539     9.4453 C.2     
 137 O137         -31.4030   -33.4022     9.7994 O.2     
 138 O138         -30.0756   -31.6589     9.5126 O.3     
 139 C139         -36.7417   -35.9069     7.0735 C.2     
 140 O140         -35.5629   -36.1197     6.8836 O.2     
 141 N141         -36.0492   -33.6312     7.5540 N.am    
 142 C142         -37.2045   -34.5279     7.4676 C.3     
 143 C143         -38.1832   -33.9989     6.4172 C.3     
 144 C144         -38.7398   -32.6741     6.8714 C.ar    
 145 C145         -38.0955   -31.5002     6.5271 C.ar    
 146 C146         -38.6035   -30.2846     6.9426 C.ar    
 147 C147         -39.7614   -30.2423     7.7055 C.ar    
 148 O148         -40.2634   -29.0476     8.1151 O.3     
 149 C149         -40.4063   -31.4215     8.0493 C.ar    
 150 C150         -39.8971   -32.6343     7.6269 C.ar    
 151 C151         -38.1998   -38.9803     5.8094 C.2     
 152 O152         -39.2263   -38.4166     5.4942 O.2     
 153 N153         -37.6378   -36.9036     6.9321 N.am    
 154 C154         -37.1789   -38.2678     6.6586 C.3     
 155 C155         -36.9994   -39.0198     7.9789 C.3     
 156 C156         -38.2866   -38.9228     8.8002 C.3     
 157 C157         -39.4053   -39.6848     8.0869 C.3     
 158 C158         -35.8439   -38.3989     8.7664 C.3     
 159 C159         -39.2676   -42.2953     5.3410 C.2     
 160 O160         -38.6485   -42.5978     6.3391 O.2     
 161 N161         -37.9721   -40.2441     5.4003 N.am    
 162 C162         -39.0079   -40.9738     4.6648 C.3     
 163 C163         -38.5374   -41.2191     3.2297 C.3     
 164 C164         -38.4444   -39.9039     2.4998 C.2     
 165 O165         -38.6578   -38.8663     3.0904 O.2     
 166 N166         -38.1241   -39.8808     1.1909 N.am    
 167 C167         -39.4214   -45.4424     4.7656 C.2     
 168 O168         -38.6770   -45.0627     3.8866 O.2     
 169 N169         -40.1879   -43.1410     4.8368 N.am    
 170 C170         -40.3633   -44.4699     5.4277 C.3     
 171 C171         -41.8059   -44.9347     5.2189 C.3     
 172 C172         -42.7384   -44.0449     5.9999 C.2     
 173 O173         -42.3028   -43.0782     6.5887 O.2     
 174 N174         -44.0563   -44.3235     6.0442 N.am    
 175 C175         -39.0070   -49.0382     4.5021 C.2     
 176 O176         -40.1417   -49.2371     4.8813 O.2     
 177 N177         -39.4063   -46.7340     5.1503 N.am    
 178 C178         -38.4158   -47.6546     4.5867 C.3     
 179 C179         -37.1773   -47.6831     5.4845 C.3     
 180 C180         -37.5974   -47.9893     6.9234 C.3     
 181 C181         -38.1290   -49.4216     7.0057 C.3     
 182 C182         -36.4803   -46.3220     5.4353 C.3     
 183 C183         -37.6780   -52.4069     4.0033 C.2     
 184 O184         -36.5307   -52.0135     3.9957 O.2     
 185 N185         -38.2746   -50.0547     4.0051 N.am    
 186 C186         -38.8140   -51.4168     4.0096 C.3     
 187 C187         -39.6802   -51.6265     2.7660 C.3     
 188 C188         -40.8831   -50.7211     2.8332 C.2     
 189 C189         -41.2572   -49.8312     1.8943 C.2     
 190 N190         -42.3959   -49.2261     2.3535 N.pl3   
 191 C191         -42.6782   -49.7677     3.5579 C.2     
 192 N192         -41.7720   -50.6646     3.8361 N.2     
 193 C193         -37.3036   -55.9934     3.4035 C.2     
 194 O194         -38.4491   -56.1058     3.0213 O.2     
 195 N195         -37.9368   -53.7296     4.0061 N.am    
 196 C196         -36.8324   -54.6921     3.9999 C.3     
 197 C197         -36.3563   -54.9312     5.4341 C.3     
 198 C198         -35.7630   -53.6380     5.9968 C.3     
 199 C199         -35.4012   -53.8414     7.4694 C.3     
 200 C200         -34.5045   -53.2691     5.2087 C.3     
 201 C201         -36.0584   -59.4263     3.2362 C.2     
 202 O202         -35.1186   -59.1902     3.9656 O.2     
 203 N203         -36.4520   -57.0324     3.2949 N.am    
 204 C204         -36.9100   -58.2974     2.7152 C.3     
 205 C205         -36.7931   -58.2319     1.1910 C.3     
 206 C206         -37.6397   -57.0715     0.6640 C.3     
 207 O207         -35.4265   -58.0285     0.8264 O.3     
 208 C208         -34.3251   -61.9173     2.3096 C.2     
 209 O209         -34.2743   -61.1801     1.3536 O.2     
 210 N210         -36.3411   -60.6982     2.8916 N.am    
 211 C211         -35.4491   -61.7845     3.3045 C.3     
 212 C212         -36.2355   -63.0956     3.3635 C.3     
 213 C213         -37.2815   -63.0058     4.4447 C.2     
 214 C214         -38.6023   -63.2161     4.2874 C.2     
 215 N215         -39.1812   -63.0336     5.5143 N.pl3   
 216 C216         -38.1933   -62.7180     6.3792 C.2     
 217 N217         -37.0593   -62.7081     5.7335 N.2     
 218 O218         -33.3803   -62.8545     2.4853 O.3     
 219 H219          -2.5618     4.1161    26.0990 H       
 220 H220          -2.2353     5.3399    27.1767 H       
 221 H221          -4.5523     5.8246    27.4451 H       
 222 H222          -3.6183     5.6603    24.5451 H       
 223 H223          -5.0282     6.5937    25.1012 H       
 224 H224          -3.5627     7.9104    26.6069 H       
 225 H225          -2.1528     6.9770    26.0509 H       
 226 H226          -2.5451     7.7652    23.7328 H       
 227 H227          -3.9551     8.6987    24.2888 H       
 228 H228          -2.4895    10.0154    25.7945 H       
 229 H229          -1.0796     9.0820    25.2385 H       
 230 H230          -1.3067    11.1530    24.0351 H       
 231 H231          -1.5717     9.8812    22.9967 H       
 232 H232          -6.8308     5.3259    26.5895 H       
 233 H233          -7.1058     2.7840    25.1786 H       
 234 H234          -8.0579     3.1629    28.0524 H       
 235 H235          -8.5389     1.8115    26.9986 H       
 236 H236          -6.7563    -0.0950    26.5938 H       
 237 H237          -4.4784    -0.6262    27.6020 H       
 238 H238          -2.5259     0.6857    29.2528 H       
 239 H239          -2.1453     2.8173    30.4081 H       
 240 H240          -3.8169     4.6161    30.2946 H       
 241 H241          -5.8852     4.3074    29.0292 H       
 242 H242          -9.7572     2.3031    25.2177 H       
 243 H243         -11.2566     4.8063    25.3338 H       
 244 H244         -10.7523     3.3246    22.7154 H       
 245 H245         -11.9869     4.5880    22.9342 H       
 246 H246          -8.3899     3.8742    22.7628 H       
 247 H247          -6.6788     5.6044    22.3929 H       
 248 H248          -7.0076     8.4481    21.5009 H       
 249 H249          -9.6433     8.6379    22.9173 H       
 250 H250         -11.3504     6.9013    23.2766 H       
 251 H251         -14.6090     1.9535    26.2224 H       
 252 H252         -16.7547     3.2106    24.9720 H       
 253 H253         -16.1158     3.7073    26.5733 H       
 254 H254         -15.4556     4.8768    23.8113 H       
 255 H255         -15.8404     5.7520    25.3313 H       
 256 H256         -13.7256     5.1840    26.3327 H       
 257 H257         -13.2493     5.4346    24.6252 H       
 258 H258         -16.5885     0.8705    24.7602 H       
 259 H259         -15.2919    -0.5486    22.6910 H       
 260 H260         -16.2547     0.7568    21.9580 H       
 261 H261         -17.2519    -1.6252    21.1870 H       
 262 H262         -19.1009    -2.6662    23.1932 H       
 263 H263         -20.1016    -1.2468    20.6831 H       
 264 H264         -21.1123    -2.1468    21.8393 H       
 265 H265         -21.4306     0.5499    22.2901 H       
 266 H266         -20.6860    -4.3466    21.8055 H       
 267 H267         -19.2619    -5.4407    19.5028 H       
 268 H268         -19.5169    -6.9637    22.1341 H       
 269 H269         -19.0354    -7.6966    20.5851 H       
 270 H270         -17.1073    -6.1432    20.4496 H       
 271 H271         -17.5888    -5.4104    21.9986 H       
 272 H272         -17.3130    -7.6037    23.1220 H       
 273 H273         -16.8315    -8.3365    21.5730 H       
 274 H274         -14.9034    -6.7832    21.4374 H       
 275 H275         -15.3850    -6.0504    22.9864 H       
 276 H276         -13.6998    -7.7410    23.2874 H       
 277 H277         -15.1211    -8.2505    23.9845 H       
 278 H278         -20.5536    -7.7464    18.9759 H       
 279 H279         -23.3415    -7.5838    19.8297 H       
 280 H280         -22.4925    -7.1006    16.9392 H       
 281 H281         -24.1641    -7.4188    17.4615 H       
 282 H282         -21.3866    -5.0189    17.5124 H       
 283 H283         -21.6599    -2.6380    18.0738 H       
 284 H284         -24.1689    -1.0142    18.3155 H       
 285 H285         -25.6737    -3.4019    19.3271 H       
 286 H286         -25.3955    -5.7796    18.7541 H       
 287 H287         -24.5955    -9.4186    18.3053 H       
 288 H288         -22.7586   -11.5592    17.5493 H       
 289 H289         -24.6853   -11.8210    19.9006 H       
 290 H290         -23.8404   -13.1850    19.1301 H       
 291 H291         -22.4539   -10.7635    20.3640 H       
 292 H292         -22.8036   -13.6073    21.4162 H       
 293 H293         -21.8231   -12.3319    22.1780 H       
 294 H294         -23.5910   -12.1529    22.0742 H       
 295 H295         -21.4081   -13.4458    19.3501 H       
 296 H296         -21.2015   -11.8765    18.5361 H       
 297 H297         -20.4277   -12.1704    20.1119 H       
 298 H298         -24.3769   -13.6518    17.0344 H       
 299 H299         -26.9997   -12.7304    16.1404 H       
 300 H300         -24.8258   -13.6016    14.1849 H       
 301 H301         -26.5464   -13.4192    13.7671 H       
 302 H302         -24.8010   -11.2010    14.9257 H       
 303 H303         -25.7713   -11.6851    12.0724 H       
 304 H304         -24.8855   -10.2485    12.6379 H       
 305 H305         -24.0908   -11.8412    12.6378 H       
 306 H306         -27.2205   -11.0122    15.4347 H       
 307 H307         -26.7132    -9.7644    14.2711 H       
 308 H308         -27.5990   -11.2010    13.7057 H       
 309 H309         -27.9727   -14.8106    14.7301 H       
 310 H310         -26.8580   -17.3275    15.7048 H       
 311 H311         -29.5973   -16.3109    16.5831 H       
 312 H312         -29.0239   -17.9824    16.7966 H       
 313 H313         -27.1121   -17.1547    18.1415 H       
 314 H314         -27.6856   -15.4832    17.9280 H       
 315 H315         -29.1239   -16.5141    21.1402 H       
 316 H316         -28.6766   -19.1732    14.9639 H       
 317 H317         -30.1104   -18.3049    12.5727 H       
 318 H318         -27.7375   -20.2186    12.4441 H       
 319 H319         -28.9001   -19.9604    11.1212 H       
 320 H320         -28.3143   -17.5514    11.0765 H       
 321 H321         -27.1517   -17.8096    12.3994 H       
 322 H322         -25.8543   -16.8188    10.2551 H       
 323 H323         -25.0921   -18.0131     9.3522 H       
 324 H324         -30.9886   -20.6027    11.4720 H       
 325 H325         -31.3814   -22.6436    13.5234 H       
 326 H326         -33.6810   -20.9506    12.4489 H       
 327 H327         -33.8824   -22.4568    13.3757 H       
 328 H328         -32.6346   -21.4575    15.2712 H       
 329 H329         -32.4331   -19.9512    14.3444 H       
 330 H330         -34.8965   -19.6910    14.2318 H       
 331 H331         -35.0979   -21.1973    15.1586 H       
 332 H332         -33.8500   -20.1979    17.0540 H       
 333 H333         -33.6486   -18.6917    16.1272 H       
 334 H334         -35.5355   -18.5753    17.6154 H       
 335 H335         -36.0732   -18.5483    16.0418 H       
 336 H336         -33.1772   -24.3281    12.4279 H       
 337 H337         -31.9438   -25.2648    10.0662 H       
 338 H338         -33.4041   -24.3536     9.6129 H       
 339 H339         -33.7156   -26.9381     8.9159 H       
 340 H340         -34.6798   -28.5073    11.1821 H       
 341 H341         -36.5556   -27.4342     9.0284 H       
 342 H342         -36.9809   -28.7102    10.1942 H       
 343 H343         -36.5258   -27.1505    12.0674 H       
 344 H344         -36.1005   -25.8744    10.9016 H       
 345 H345         -38.1536   -25.0338    12.4316 H       
 346 H346         -39.6426   -25.2264    11.6776 H       
 347 H347         -35.8868   -30.6274    10.0372 H       
 348 H348         -34.6878   -31.2175     7.4407 H       
 349 H349         -33.8956   -32.7145     9.9785 H       
 350 H350         -33.5305   -33.2644     8.3254 H       
 351 H351         -32.2765   -31.1670     7.9046 H       
 352 H352         -32.6416   -30.6171     9.5576 H       
 353 H353         -29.3413   -32.1893     9.8512 H       
 354 H354         -35.2464   -33.8240     7.0449 H       
 355 H355         -37.7016   -34.5745     8.4365 H       
 356 H356         -37.6625   -33.8682     5.4686 H       
 357 H357         -38.9986   -34.7108     6.2891 H       
 358 H358         -37.1941   -31.5337     5.9332 H       
 359 H359         -38.0994   -29.3680     6.6740 H       
 360 H360         -40.8927   -28.6525     7.4963 H       
 361 H361         -41.3077   -31.3912     8.6434 H       
 362 H362         -40.4012   -33.5523     7.8905 H       
 363 H363         -38.5865   -36.7178     7.0115 H       
 364 H364         -36.2271   -38.2315     6.1287 H       
 365 H365         -36.7776   -40.0670     7.7733 H       
 366 H366         -38.1222   -39.3576     9.7861 H       
 367 H367         -38.5711   -37.8761     8.9076 H       
 368 H368         -39.7164   -39.1294     7.2021 H       
 369 H369         -39.0424   -40.6686     7.7894 H       
 370 H370         -40.2541   -39.7993     8.7611 H       
 371 H371         -36.1074   -37.3819     9.0571 H       
 372 H372         -35.6518   -38.9938     9.6594 H       
 373 H373         -34.9494   -38.3787     8.1439 H       
 374 H374         -37.1224   -40.6706     5.5927 H       
 375 H375         -39.9258   -40.3862     4.6508 H       
 376 H376         -37.5575   -41.6962     3.2451 H       
 377 H377         -39.2495   -41.8680     2.7198 H       
 378 H378         -37.9535   -40.7107     0.7186 H       
 379 H379         -38.0643   -39.0343     0.7211 H       
 380 H380         -40.7342   -42.8696     4.0825 H       
 381 H381         -40.1472   -44.4243     6.4951 H       
 382 H382         -42.0552   -44.8810     4.1591 H       
 383 H383         -41.9101   -45.9630     5.5650 H       
 384 H384         -44.4046   -45.0967     5.5733 H       
 385 H385         -44.6564   -43.7508     6.5469 H       
 386 H386         -40.0513   -47.0540     5.8002 H       
 387 H387         -38.1337   -47.3184     3.5889 H       
 388 H388         -36.4921   -48.4550     5.1339 H       
 389 H389         -36.7367   -47.8828     7.5837 H       
 390 H390         -38.3786   -47.2936     7.2297 H       
 391 H391         -39.1151   -49.4702     6.5438 H       
 392 H392         -37.4486   -50.0924     6.4811 H       
 393 H393         -38.2021   -49.7226     8.0508 H       
 394 H394         -37.1287   -45.5656     5.8774 H       
 395 H395         -35.5461   -46.3718     5.9948 H       
 396 H396         -36.2694   -46.0590     4.3988 H       
 397 H397         -37.3905   -49.8843     3.6443 H       
 398 H398         -39.4199   -51.5646     4.9036 H       
 399 H399         -39.0986   -51.3923     1.8744 H       
 400 H400         -40.0090   -52.6648     2.7231 H       
 401 H401         -40.7551   -49.6328     0.9589 H       
 402 H402         -42.9050   -48.5370     1.8987 H       
 403 H403         -43.5172   -49.5050     4.1851 H       
 404 H404         -38.8544   -54.0442     4.0121 H       
 405 H405         -36.0092   -54.2967     3.4049 H       
 406 H406         -37.2002   -55.2419     6.0501 H       
 407 H407         -35.5959   -55.7121     5.4391 H       
 408 H408         -36.4946   -52.8347     5.9099 H       
 409 H409         -34.6696   -54.6447     7.5563 H       
 410 H410         -34.9785   -52.9201     7.8703 H       
 411 H411         -36.2977   -54.1042     8.0309 H       
 412 H412         -33.7729   -54.0725     5.2955 H       
 413 H413         -34.7622   -53.1243     4.1595 H       
 414 H414         -34.0818   -52.3479     5.6095 H       
 415 H415         -35.5358   -56.9426     3.6006 H       
 416 H416         -37.9500   -58.4689     2.9927 H       
 417 H417         -37.1491   -59.1670     0.7588 H       
 418 H418         -37.3041   -56.1403     1.1205 H       
 419 H419         -37.5315   -57.0051    -0.4185 H       
 420 H420         -38.6866   -57.2424     0.9147 H       
 421 H421         -34.8305   -58.7276     1.1285 H       
 422 H422         -37.1351   -60.8944     2.3702 H       
 423 H423         -35.0382   -61.5627     4.2895 H       
 424 H424         -36.7199   -63.2723     2.4032 H       
 425 H425         -35.5549   -63.9180     3.5839 H       
 426 H426         -39.1077   -63.4780     3.3696 H       
 427 H427         -40.1249   -63.1157     5.7234 H       
 428 H428         -38.3202   -62.5119     7.4317 H       
 429 H429         -32.6794   -62.9013     1.8208 H       
@<TRIPOS>BOND
   1    1    2 2
   2    1    4 1
   3    1   12 am
   4    3    4 1
   5    3  219 1
   6    3  220 1
   7    4    5 1
   8    4  221 1
   9    5    6 1
  10    5  222 1
  11    5  223 1
  12    6    7 1
  13    6  224 1
  14    6  225 1
  15    7    8 1
  16    7  226 1
  17    7  227 1
  18    8    9 1
  19    8  228 1
  20    8  229 1
  21    9  230 1
  22    9  231 1
  23   10   11 2
  24   10   13 1
  25   10   26 am
  26   12   13 1
  27   12  232 1
  28   13   14 1
  29   13  233 1
  30   14   15 1
  31   14  234 1
  32   14  235 1
  33   15   16 2
  34   15   23 1
  35   16   17 1
  36   16  236 1
  37   17   18 1
  38   17  237 1
  39   18   19 ar
  40   18   23 ar
  41   19   20 ar
  42   19  238 1
  43   20   21 ar
  44   20  239 1
  45   21   22 ar
  46   21  240 1
  47   22   23 ar
  48   22  241 1
  49   24   25 2
  50   24   27 1
  51   24   38 am
  52   26   27 1
  53   26  242 1
  54   27   28 1
  55   27  243 1
  56   28   29 1
  57   28  244 1
  58   28  245 1
  59   29   30 ar
  60   29   35 ar
  61   30   31 ar
  62   30  246 1
  63   31   32 ar
  64   31  247 1
  65   32   33 1
  66   32   34 ar
  67   33  248 1
  68   34   35 ar
  69   34  249 1
  70   35  250 1
  71   36   37 2
  72   36   45 am
  73   36   39 1
  74   38   39 1
  75   38   42 1
  76   39   40 1
  77   39  251 1
  78   40   41 1
  79   40  252 1
  80   40  253 1
  81   41   42 1
  82   41  254 1
  83   41  255 1
  84   42  256 1
  85   42  257 1
  86   43   44 2
  87   43   46 1
  88   43   49 am
  89   45   46 1
  90   45  258 1
  91   46  259 1
  92   46  260 1
  93   47   48 2
  94   47   50 1
  95   47   55 am
  96   49   50 1
  97   49  261 1
  98   50   51 1
  99   50  262 1
 100   51   52 1
 101   51  263 1
 102   51  264 1
 103   52  265 1
 104   53   54 2
 105   53   56 1
 106   53   64 am
 107   55   56 1
 108   55  266 1
 109   56   57 1
 110   56  267 1
 111   57   58 1
 112   57  268 1
 113   57  269 1
 114   58   59 1
 115   58  270 1
 116   58  271 1
 117   59   60 1
 118   59  272 1
 119   59  273 1
 120   60   61 1
 121   60  274 1
 122   60  275 1
 123   61  276 1
 124   61  277 1
 125   62   63 2
 126   62   65 1
 127   62   76 am
 128   64   65 1
 129   64  278 1
 130   65   66 1
 131   65  279 1
 132   66   67 1
 133   66  280 1
 134   66  281 1
 135   67   68 ar
 136   67   73 ar
 137   68   69 ar
 138   68  282 1
 139   69   70 ar
 140   69  283 1
 141   70   71 1
 142   70   72 ar
 143   71  284 1
 144   72   73 ar
 145   72  285 1
 146   73  286 1
 147   74   75 2
 148   74   77 1
 149   74   84 am
 150   76   77 1
 151   76  287 1
 152   77   78 1
 153   77  288 1
 154   78   79 1
 155   78  289 1
 156   78  290 1
 157   79   80 1
 158   79   81 1
 159   79  291 1
 160   80  292 1
 161   80  293 1
 162   80  294 1
 163   81  295 1
 164   81  296 1
 165   81  297 1
 166   82   83 2
 167   82   85 1
 168   82   92 am
 169   84   85 1
 170   84  298 1
 171   85   86 1
 172   85  299 1
 173   86   87 1
 174   86  300 1
 175   86  301 1
 176   87   88 1
 177   87   89 1
 178   87  302 1
 179   88  303 1
 180   88  304 1
 181   88  305 1
 182   89  306 1
 183   89  307 1
 184   89  308 1
 185   90   91 2
 186   90   93 1
 187   90  101 am
 188   92   93 1
 189   92  309 1
 190   93   94 1
 191   93  310 1
 192   94   95 1
 193   94  311 1
 194   94  312 1
 195   95   96 1
 196   95  313 1
 197   95  314 1
 198   96   97 2
 199   96   98 1
 200   98  315 1
 201   99  100 2
 202   99  102 1
 203   99  110 am
 204  101  102 1
 205  101  316 1
 206  102  103 1
 207  102  317 1
 208  103  104 1
 209  103  318 1
 210  103  319 1
 211  104  105 1
 212  104  320 1
 213  104  321 1
 214  105  106 2
 215  105  107 am
 216  107  322 1
 217  107  323 1
 218  108  109 2
 219  108  111 1
 220  108  119 am
 221  110  111 1
 222  110  324 1
 223  111  112 1
 224  111  325 1
 225  112  113 1
 226  112  326 1
 227  112  327 1
 228  113  114 1
 229  113  328 1
 230  113  329 1
 231  114  115 1
 232  114  330 1
 233  114  331 1
 234  115  116 1
 235  115  332 1
 236  115  333 1
 237  116  334 1
 238  116  335 1
 239  117  118 2
 240  117  120 1
 241  117  123 am
 242  119  120 1
 243  119  336 1
 244  120  337 1
 245  120  338 1
 246  121  122 2
 247  121  124 1
 248  121  132 am
 249  123  124 1
 250  123  339 1
 251  124  125 1
 252  124  340 1
 253  125  126 1
 254  125  341 1
 255  125  342 1
 256  126  127 1
 257  126  343 1
 258  126  344 1
 259  127  128 2
 260  127  129 am
 261  129  345 1
 262  129  346 1
 263  130  131 2
 264  130  133 1
 265  130  141 am
 266  132  133 1
 267  132  347 1
 268  133  134 1
 269  133  348 1
 270  134  135 1
 271  134  349 1
 272  134  350 1
 273  135  136 1
 274  135  351 1
 275  135  352 1
 276  136  137 2
 277  136  138 1
 278  138  353 1
 279  139  140 2
 280  139  142 1
 281  139  153 am
 282  141  142 1
 283  141  354 1
 284  142  143 1
 285  142  355 1
 286  143  144 1
 287  143  356 1
 288  143  357 1
 289  144  145 ar
 290  144  150 ar
 291  145  146 ar
 292  145  358 1
 293  146  147 ar
 294  146  359 1
 295  147  148 1
 296  147  149 ar
 297  148  360 1
 298  149  150 ar
 299  149  361 1
 300  150  362 1
 301  151  152 2
 302  151  154 1
 303  151  161 am
 304  153  154 1
 305  153  363 1
 306  154  155 1
 307  154  364 1
 308  155  156 1
 309  155  158 1
 310  155  365 1
 311  156  157 1
 312  156  366 1
 313  156  367 1
 314  157  368 1
 315  157  369 1
 316  157  370 1
 317  158  371 1
 318  158  372 1
 319  158  373 1
 320  159  160 2
 321  159  162 1
 322  159  169 am
 323  161  162 1
 324  161  374 1
 325  162  163 1
 326  162  375 1
 327  163  164 1
 328  163  376 1
 329  163  377 1
 330  164  165 2
 331  164  166 am
 332  166  378 1
 333  166  379 1
 334  167  168 2
 335  167  170 1
 336  167  177 am
 337  169  170 1
 338  169  380 1
 339  170  171 1
 340  170  381 1
 341  171  172 1
 342  171  382 1
 343  171  383 1
 344  172  173 2
 345  172  174 am
 346  174  384 1
 347  174  385 1
 348  175  176 2
 349  175  178 1
 350  175  185 am
 351  177  178 1
 352  177  386 1
 353  178  179 1
 354  178  387 1
 355  179  180 1
 356  179  182 1
 357  179  388 1
 358  180  181 1
 359  180  389 1
 360  180  390 1
 361  181  391 1
 362  181  392 1
 363  181  393 1
 364  182  394 1
 365  182  395 1
 366  182  396 1
 367  183  184 2
 368  183  186 1
 369  183  195 am
 370  185  186 1
 371  185  397 1
 372  186  187 1
 373  186  398 1
 374  187  188 1
 375  187  399 1
 376  187  400 1
 377  188  189 2
 378  188  192 1
 379  189  190 1
 380  189  401 1
 381  190  191 1
 382  190  402 1
 383  191  192 2
 384  191  403 1
 385  193  194 2
 386  193  196 1
 387  193  203 am
 388  195  196 1
 389  195  404 1
 390  196  197 1
 391  196  405 1
 392  197  198 1
 393  197  406 1
 394  197  407 1
 395  198  199 1
 396  198  200 1
 397  198  408 1
 398  199  409 1
 399  199  410 1
 400  199  411 1
 401  200  412 1
 402  200  413 1
 403  200  414 1
 404  201  202 2
 405  201  204 1
 406  201  210 am
 407  203  204 1
 408  203  415 1
 409  204  205 1
 410  204  416 1
 411  205  206 1
 412  205  207 1
 413  205  417 1
 414  206  418 1
 415  206  419 1
 416  206  420 1
 417  207  421 1
 418  208  209 2
 419  208  211 1
 420  208  218 1
 421  210  211 1
 422  210  422 1
 423  211  212 1
 424  211  423 1
 425  212  213 1
 426  212  424 1
 427  212  425 1
 428  213  214 2
 429  213  217 1
 430  214  215 1
 431  214  426 1
 432  215  216 1
 433  215  427 1
 434  216  217 2
 435  216  428 1
 436  218  429 1

#	End of record

