#	Name: ASD01150305
#	Creating user name:	WinNT
#	Creation time:	15. 06. 2019 19:04

#	Modifying user name:	WinNT
#	Modification time:	15. 06. 2019 19:04

#	Program:	/corina/corina34_cracker 3.40 0067  02.08.2006

@<TRIPOS>MOLECULE
ASD01150305
  65   68    0    0    0
SMALL
NO_CHARGES


@<TRIPOS>ATOM
   1 N1            -0.0169     1.3928     0.0097 N.pl3   
   2 C2             0.0021    -0.0041     0.0020 C.2     
   3 C3            -1.3283    -0.4051     0.0126 C.2     
   4 N4            -2.0859     0.6952     0.0257 N.2     
   5 C5            -1.3234     1.7684     0.0301 C.2     
   6 C6             1.1388    -0.8368    -0.0133 C.2     
   7 C7             1.0964     2.2430     0.0036 C.ar    
   8 C8             1.3307     3.0747    -1.0833 C.ar    
   9 C9             2.4293     3.9119    -1.0863 C.ar    
  10 C10            3.2956     3.9220    -0.0086 C.ar    
  11 C11            3.0653     3.0945     1.0751 C.ar    
  12 C12            1.9648     2.2599     1.0870 C.ar    
  13 N13           -1.7777     3.0670     0.0436 N.3     
  14 C14           -3.2460     3.1110     0.0521 C.3     
  15 C15           -1.2222     3.8072     1.1845 C.3     
  16 O16            1.0068    -2.0474    -0.0185 O.2     
  17 O17            2.3746    -0.2923    -0.0222 O.3     
  18 C18            3.4816    -1.1959    -0.0376 C.3     
  19 C19            3.4087    -2.0704    -1.2909 C.3     
  20 C20            4.7888    -0.4009    -0.0458 C.3     
  21 C21            3.4325    -2.0838     1.2074 C.3     
  22 C22           -3.1128    -1.9654     0.0208 C.2     
  23 O23           -3.9058    -1.0422     0.0338 O.2     
  24 C24           -3.5980    -3.3479     0.0176 C.2     
  25 C25           -4.9089    -3.7434     0.0280 C.2     
  26 N26           -5.0737    -5.0391     0.0222 N.2     
  27 C27           -4.0002    -5.7784     0.0076 C.2     
  28 S28           -2.5992    -4.7992    -0.0080 S.3     
  29 C29           -3.9951    -7.2562    -0.0008 C.ar    
  30 C30           -2.7856    -7.9531    -0.0165 C.ar    
  31 C31           -2.7880    -9.3326    -0.0238 C.ar    
  32 C32           -3.9856   -10.0254    -0.0157 C.ar    
  33 C33           -5.1879    -9.3409    -0.0007 C.ar    
  34 C34           -5.1997    -7.9615     0.0126 C.ar    
  35 C35           -6.0594    -2.7702     0.0446 C.3     
  36 N36           -1.7884    -1.7160     0.0095 N.am    
  37 H37            0.6548     3.0668    -1.9256 H       
  38 H38            2.6120     4.5590    -1.9314 H       
  39 H39            4.1541     4.5772    -0.0134 H       
  40 H40            3.7439     3.1044     1.9153 H       
  41 H41            1.7854     1.6139     1.9337 H       
  42 H42           -3.6197     2.6007     0.9398 H       
  43 H43           -3.5783     4.1490     0.0627 H       
  44 H44           -3.6295     2.6158    -0.8401 H       
  45 H45           -0.1345     3.8181     1.1157 H       
  46 H46           -1.5975     4.8304     1.1711 H       
  47 H47           -1.5227     3.3221     2.1133 H       
  48 H48            3.4436    -1.4378    -2.1779 H       
  49 H49            4.2530    -2.7596    -1.3026 H       
  50 H50            2.4774    -2.6368    -1.2850 H       
  51 H51            4.8407     0.2222     0.8471 H       
  52 H52            5.6331    -1.0901    -0.0575 H       
  53 H53            4.8238     0.2317    -0.9327 H       
  54 H54            2.5012    -2.6502     1.2133 H       
  55 H55            4.2768    -2.7730     1.1957 H       
  56 H56            3.4844    -1.4608     2.1003 H       
  57 H57           -1.8501    -7.4134    -0.0232 H       
  58 H58           -1.8530    -9.8729    -0.0363 H       
  59 H59           -3.9819   -11.1054    -0.0215 H       
  60 H60           -6.1192    -9.8878     0.0052 H       
  61 H61           -6.1389    -7.4283     0.0247 H       
  62 H62           -6.3467    -2.5297    -0.9789 H       
  63 H63           -6.9066    -3.2180     0.5641 H       
  64 H64           -5.7570    -1.8590     0.5608 H       
  65 H65           -1.1564    -2.4518    -0.0008 H       
@<TRIPOS>BOND
   1    1    2 1
   2    1    7 1
   3    1    5 1
   4    2    3 2
   5    2    6 1
   6    3    4 1
   7    3   36 1
   8    4    5 2
   9    5   13 1
  10    6   16 2
  11    6   17 1
  12    7    8 ar
  13    7   12 ar
  14    8    9 ar
  15    8   37 1
  16    9   10 ar
  17    9   38 1
  18   10   11 ar
  19   10   39 1
  20   11   12 ar
  21   11   40 1
  22   12   41 1
  23   13   14 1
  24   13   15 1
  25   14   42 1
  26   14   43 1
  27   14   44 1
  28   15   45 1
  29   15   46 1
  30   15   47 1
  31   17   18 1
  32   18   19 1
  33   18   20 1
  34   18   21 1
  35   19   48 1
  36   19   49 1
  37   19   50 1
  38   20   51 1
  39   20   52 1
  40   20   53 1
  41   21   54 1
  42   21   55 1
  43   21   56 1
  44   22   23 2
  45   22   24 1
  46   22   36 am
  47   24   25 2
  48   24   28 1
  49   25   26 1
  50   25   35 1
  51   26   27 2
  52   27   28 1
  53   27   29 1
  54   29   30 ar
  55   29   34 ar
  56   30   31 ar
  57   30   57 1
  58   31   32 ar
  59   31   58 1
  60   32   33 ar
  61   32   59 1
  62   33   34 ar
  63   33   60 1
  64   34   61 1
  65   35   62 1
  66   35   63 1
  67   35   64 1
  68   36   65 1

#	End of record

