#	Name: ASD00843507
#	Creating user name:	WinNT
#	Creation time:	15. 06. 2019 18:46

#	Modifying user name:	WinNT
#	Modification time:	15. 06. 2019 18:46

#	Program:	/corina/corina34_cracker 3.40 0067  02.08.2006

@<TRIPOS>MOLECULE
ASD00843507
  98  103    0    0    0
SMALL
NO_CHARGES


@<TRIPOS>ATOM
   1 F1             5.5724    -2.3915    -2.0688 F       
   2 N2             0.7611     1.0361    -0.2418 N.ar    
   3 C3             0.9583    -0.2417    -0.5196 C.ar    
   4 C4             0.8643    -1.2053     0.4767 C.ar    
   5 C5             0.5608    -0.8112     1.7680 C.ar    
   6 C6             0.3610     0.5397     2.0183 C.ar    
   7 C7             0.4703     1.4424     0.9796 C.ar    
   8 C8             1.0894    -2.6603     0.1554 C.3     
   9 C9             0.7942    -3.5220     1.3643 C.2     
  10 C10            0.2220    -3.0862    -1.0309 C.3     
  11 C11           -1.2210    -2.7644    -0.7391 C.2     
  12 N12           -2.1851    -3.1542    -1.5965 N.am    
  13 O13           -1.5149    -2.1547     0.2673 O.2     
  14 C14           -3.5855    -2.7550    -1.3901 C.3     
  15 C15           -4.1152    -2.1462    -2.6928 C.3     
  16 N16           -3.8948    -3.0907    -3.7961 N.3     
  17 C17           -2.4620    -3.3329    -4.0120 C.3     
  18 C18           -1.8636    -3.9852    -2.7667 C.3     
  19 C19           -4.5409    -2.6205    -5.0287 C.3     
  20 C20           -4.1870    -3.5620    -6.1832 C.3     
  21 C21           -4.9114    -3.1021    -7.4504 C.3     
  22 N22           -6.3611    -3.1086    -7.2166 N.3     
  23 C23           -6.7301    -2.1762    -6.1438 C.3     
  24 C24           -6.0600    -2.6084    -4.8376 C.3     
  25 C25           -7.0950    -2.8059    -8.4527 C.3     
  26 O26           -0.2712    -3.6203     1.9355 O.2     
  27 N27            1.9331    -4.1579     1.6859 N.am    
  28 C28            2.5508    -2.9189    -0.1337 C.ar    
  29 C29            2.9841    -3.8269     0.8271 C.ar    
  30 C30            3.4099    -2.4395    -1.0978 C.ar    
  31 C31            4.7283    -2.8597    -1.1235 C.ar    
  32 C32            5.1817    -3.7722    -0.1654 C.ar    
  33 C33            4.3066    -4.2539     0.8078 C.ar    
  34 C34            1.6944    -6.8205     2.3402 C.ar    
  35 C35            0.4154    -7.1029     1.8824 C.ar    
  36 C36            2.6717    -7.7971     2.3097 C.ar    
  37 C37            2.3783    -9.0564     1.8232 C.ar    
  38 C38            1.1004    -9.3438     1.3642 C.ar    
  39 C39            0.1182    -8.3662     1.3941 C.ar    
  40 O40            0.8122   -10.5829     0.8861 O.3     
  41 O41           -0.5454    -6.1423     1.9130 O.3     
  42 C42           -1.8394    -6.5032     1.4258 C.3     
  43 C43            1.8726   -11.5408     0.8855 C.3     
  44 C44           -8.5874    -3.0641    -8.2359 C.3     
  45 C45           -9.3518    -2.7489    -9.5232 C.3     
  46 O46            1.2549    -0.6152    -1.7898 O.3     
  47 C47            1.2855     0.4158    -2.7788 C.3     
  48 C48            1.7359    -0.1741    -4.1167 C.3     
  49 F49            2.9759    -0.8015    -3.9559 F       
  50 F50            0.7929    -1.1103    -4.5546 F       
  51 S51            2.0747    -5.2133     2.9541 S.o2    
  52 O52            3.4510    -5.2340     3.3072 O.2     
  53 O53            1.0420    -4.8794     3.8713 O.2     
  54 C54            6.5442    -4.2125    -0.1842 C.1     
  55 N55            7.6250    -4.5617    -0.1992 N.1     
  56 H56            0.4808    -1.5380     2.5628 H       
  57 H57            0.1223     0.8806     3.0149 H       
  58 H58            0.3162     2.4944     1.1691 H       
  59 H59            0.5403    -2.5498    -1.9248 H       
  60 H60            0.3295    -4.1587    -1.1931 H       
  61 H61           -4.1804    -3.6293    -1.1261 H       
  62 H62           -3.6415    -2.0157    -0.5911 H       
  63 H63           -5.1820    -1.9458    -2.5932 H       
  64 H64           -3.5876    -1.2152    -2.9001 H       
  65 H65           -2.3299    -3.9930    -4.8692 H       
  66 H66           -1.9575    -2.3853    -4.2010 H       
  67 H67           -0.7820    -4.0618    -2.8774 H       
  68 H68           -2.2920    -4.9784    -2.6319 H       
  69 H69           -4.1939    -1.6135    -5.2605 H       
  70 H70           -3.1103    -3.5422    -6.3520 H       
  71 H71           -4.4982    -4.5765    -5.9339 H       
  72 H72           -4.5894    -2.0929    -7.7068 H       
  73 H73           -4.6729    -3.7788    -8.2709 H       
  74 H74           -6.3996    -1.1713    -6.4064 H       
  75 H75           -7.8125    -2.1803    -6.0154 H       
  76 H76           -6.4007    -3.6078    -4.5672 H       
  77 H77           -6.3216    -1.9073    -4.0451 H       
  78 H78           -6.9422    -1.7601    -8.7192 H       
  79 H79           -6.7292    -3.4433    -9.2577 H       
  80 H80            3.0540    -1.7351    -1.8351 H       
  81 H81            4.6570    -4.9585     1.5474 H       
  82 H82            3.6667    -7.5754     2.6665 H       
  83 H83            3.1440    -9.8177     1.7998 H       
  84 H84           -0.8768    -8.5880     1.0376 H       
  85 H85           -2.5097    -5.6475     1.5064 H       
  86 H86           -1.7627    -6.8076     0.3820 H       
  87 H87           -2.2328    -7.3299     2.0174 H       
  88 H88            2.6939   -11.1733     0.2703 H       
  89 H89            2.2236   -11.6949     1.9059 H       
  90 H90            1.5090   -12.4850     0.4799 H       
  91 H91           -8.7403    -4.1099    -7.9693 H       
  92 H92           -8.9532    -2.4267    -7.4308 H       
  93 H93           -9.1989    -1.7031    -9.7898 H       
  94 H94           -8.9860    -3.3862   -10.3283 H       
  95 H95          -10.4150    -2.9328    -9.3688 H       
  96 H96            0.2893     0.8445    -2.8876 H       
  97 H97            1.9843     1.1937    -2.4711 H       
  98 H98            1.8252     0.6237    -4.8539 H       
@<TRIPOS>BOND
   1    1   31 1
   2    2    3 ar
   3    2    7 ar
   4    3    4 ar
   5    3   46 1
   6    4    5 ar
   7    4    8 1
   8    5    6 ar
   9    5   56 1
  10    6    7 ar
  11    6   57 1
  12    7   58 1
  13    8    9 1
  14    8   10 1
  15    8   28 1
  16    9   26 2
  17    9   27 am
  18   10   11 1
  19   10   59 1
  20   10   60 1
  21   11   12 am
  22   11   13 2
  23   12   14 1
  24   12   18 1
  25   14   15 1
  26   14   61 1
  27   14   62 1
  28   15   16 1
  29   15   63 1
  30   15   64 1
  31   16   17 1
  32   16   19 1
  33   17   18 1
  34   17   65 1
  35   17   66 1
  36   18   67 1
  37   18   68 1
  38   19   20 1
  39   19   24 1
  40   19   69 1
  41   20   21 1
  42   20   70 1
  43   20   71 1
  44   21   22 1
  45   21   72 1
  46   21   73 1
  47   22   23 1
  48   22   25 1
  49   23   24 1
  50   23   74 1
  51   23   75 1
  52   24   76 1
  53   24   77 1
  54   25   44 1
  55   25   78 1
  56   25   79 1
  57   27   51 am
  58   27   29 1
  59   28   29 ar
  60   28   30 ar
  61   29   33 ar
  62   30   31 ar
  63   30   80 1
  64   31   32 ar
  65   32   33 ar
  66   32   54 1
  67   33   81 1
  68   34   35 ar
  69   34   36 ar
  70   34   51 1
  71   35   41 1
  72   35   39 ar
  73   36   37 ar
  74   36   82 1
  75   37   38 ar
  76   37   83 1
  77   38   39 ar
  78   38   40 1
  79   39   84 1
  80   40   43 1
  81   41   42 1
  82   42   85 1
  83   42   86 1
  84   42   87 1
  85   43   88 1
  86   43   89 1
  87   43   90 1
  88   44   45 1
  89   44   91 1
  90   44   92 1
  91   45   93 1
  92   45   94 1
  93   45   95 1
  94   46   47 1
  95   47   48 1
  96   47   96 1
  97   47   97 1
  98   48   49 1
  99   48   50 1
 100   48   98 1
 101   51   52 2
 102   51   53 2
 103   54   55 3

#	End of record

