#	Name: ASD01230493
#	Creating user name:	WinNT
#	Creation time:	15. 06. 2019 19:14

#	Modifying user name:	WinNT
#	Modification time:	15. 06. 2019 19:14

#	Program:	/corina/corina34_cracker 3.40 0067  02.08.2006

@<TRIPOS>MOLECULE
ASD01230493
  34   36    0    0    0
SMALL
NO_CHARGES


@<TRIPOS>ATOM
   1 C1            -0.0419     1.1453     1.5683 C.ar    
   2 C2            -0.0293    -0.0764     0.8811 C.ar    
   3 C3             1.1882    -0.5724     0.4115 C.ar    
   4 C4             2.3374     0.1694     0.6471 C.ar    
   5 C5             2.2449     1.3646     1.3320 C.ar    
   6 N6             1.0823     1.8141     1.7668 N.ar    
   7 N7            -1.2426     1.6596     2.0388 N.pl3   
   8 C8            -1.2871    -0.8289     0.6572 C.ar    
   9 C9            -1.7677    -1.0167    -0.6380 C.ar    
  10 C10           -2.9379    -1.7170    -0.8430 C.ar    
  11 C11           -3.6373    -2.2348     0.2389 C.ar    
  12 C12           -3.1616    -2.0491     1.5301 C.ar    
  13 C13           -1.9887    -1.3550     1.7411 C.ar    
  14 O14           -4.7900    -2.9244     0.0338 O.3     
  15 C15           -5.9590    -2.2318     0.0490 C.ar    
  16 C16           -5.9461    -0.8488     0.1610 C.ar    
  17 C17           -7.1359    -0.1472     0.1763 C.ar    
  18 C18           -8.3390    -0.8218     0.0802 C.ar    
  19 C19           -8.3547    -2.1999    -0.0314 C.ar    
  20 C20           -7.1676    -2.9059    -0.0530 C.ar    
  21 Cl21           1.2631    -2.0803    -0.4454 Cl      
  22 H22            3.2958    -0.1854     0.2978 H       
  23 H23            3.1392     1.9416     1.5155 H       
  24 H24           -2.0691     1.1738     1.8915 H       
  25 H25           -1.2549     2.5047     2.5147 H       
  26 H26           -1.2243    -0.6139    -1.4799 H       
  27 H27           -3.3108    -1.8625    -1.8460 H       
  28 H28           -3.7080    -2.4527     2.3696 H       
  29 H29           -1.6166    -1.2150     2.7452 H       
  30 H30           -5.0066    -0.3214     0.2365 H       
  31 H31           -7.1264     0.9293     0.2638 H       
  32 H32           -9.2682    -0.2714     0.0928 H       
  33 H33           -9.2958    -2.7244    -0.1064 H       
  34 H34           -7.1802    -3.9819    -0.1451 H       
@<TRIPOS>BOND
   1    1    2 ar
   2    1    6 ar
   3    1    7 1
   4    2    3 ar
   5    2    8 1
   6    3    4 ar
   7    3   21 1
   8    4    5 ar
   9    4   22 1
  10    5    6 ar
  11    5   23 1
  12    7   24 1
  13    7   25 1
  14    8    9 ar
  15    8   13 ar
  16    9   10 ar
  17    9   26 1
  18   10   11 ar
  19   10   27 1
  20   11   12 ar
  21   11   14 1
  22   12   13 ar
  23   12   28 1
  24   13   29 1
  25   14   15 1
  26   15   16 ar
  27   15   20 ar
  28   16   17 ar
  29   16   30 1
  30   17   18 ar
  31   17   31 1
  32   18   19 ar
  33   18   32 1
  34   19   20 ar
  35   19   33 1
  36   20   34 1

#	End of record

