#	Name: ASD01916231
#	Creating user name:	WinNT
#	Creation time:	15. 06. 2019 20:06

#	Modifying user name:	WinNT
#	Modification time:	15. 06. 2019 20:06

#	Program:	/corina/corina34_cracker 3.40 0067  02.08.2006

@<TRIPOS>MOLECULE
ASD01916231
  28   30    0    0    0
SMALL
NO_CHARGES


@<TRIPOS>ATOM
   1 C1             0.0973     1.3425     0.5022 C.2     
   2 N2             0.1203    -0.0007     0.5166 N.am    
   3 C3             1.2074    -0.6749     0.0130 C.2     
   4 C4             2.3247     0.1000    -0.5327 C.2     
   5 C5             2.2389     1.4443    -0.5178 C.2     
   6 N6             1.1212     2.0552     0.0024 N.am    
   7 N7             0.9865    -1.9658     0.1427 N.2     
   8 C8            -0.2101    -2.1548     0.7149 C.2     
   9 C9            -0.7675    -0.9520     0.9567 C.2     
  10 O10           -0.8729     1.9258     0.9462 O.2     
  11 C11            1.0482     3.4546     0.0101 C.ar    
  12 C12            0.4946     4.1278    -1.0707 C.ar    
  13 C13            0.4236     5.5070    -1.0612 C.ar    
  14 C14            0.9042     6.2185     0.0253 C.ar    
  15 C15            1.4567     5.5489     1.1043 C.ar    
  16 C16            1.5243     4.1695     1.1011 C.ar    
  17 F17            0.8343     7.5677     0.0326 F       
  18 C18           -0.8301    -3.4906     1.0346 C.3     
  19 Cl19          -0.3484    -3.9942     2.6975 Cl      
  20 H20            3.1958    -0.3944    -0.9367 H       
  21 H21            3.0470     2.0419    -0.9130 H       
  22 H22           -1.7302    -0.7702     1.4112 H       
  23 H23            0.1201     3.5733    -1.9185 H       
  24 H24           -0.0066     6.0310    -1.9019 H       
  25 H25            1.8309     6.1056     1.9507 H       
  26 H26            1.9509     3.6475     1.9448 H       
  27 H27           -1.9157    -3.4099     0.9795 H       
  28 H28           -0.4840    -4.2332     0.3155 H       
@<TRIPOS>BOND
   1    1    2 am
   2    1    6 am
   3    1   10 2
   4    2    3 1
   5    2    9 1
   6    3    4 1
   7    3    7 2
   8    4    5 2
   9    4   20 1
  10    5    6 1
  11    5   21 1
  12    6   11 1
  13    7    8 1
  14    8    9 2
  15    8   18 1
  16    9   22 1
  17   11   12 ar
  18   11   16 ar
  19   12   13 ar
  20   12   23 1
  21   13   14 ar
  22   13   24 1
  23   14   15 ar
  24   14   17 1
  25   15   16 ar
  26   15   25 1
  27   16   26 1
  28   18   19 1
  29   18   27 1
  30   18   28 1

#	End of record

