#	Name: ASD03910024
#	Creating user name:	WinNT
#	Creation time:	15. 06. 2019 20:47

#	Modifying user name:	WinNT
#	Modification time:	15. 06. 2019 20:47

#	Program:	/corina/corina34_cracker 3.40 0067  02.08.2006

@<TRIPOS>MOLECULE
ASD03910024
  54   55    0    0    0
SMALL
NO_CHARGES


@<TRIPOS>ATOM
   1 C1             0.1084    -0.0030    -0.8545 C.ar    
   2 C2             1.1129     0.5730    -0.0985 C.ar    
   3 C3             0.8407     1.6711     0.6965 C.ar    
   4 C4            -0.4362     2.1959     0.7381 C.ar    
   5 C5            -1.4471     1.6198    -0.0199 C.ar    
   6 C6            -1.1691     0.5207    -0.8220 C.ar    
   7 N7            -2.7418     2.1490     0.0201 N.am    
   8 C8            -2.9226     3.4800     0.1308 C.2     
   9 C9            -4.3126     4.0591     0.0714 C.3     
  10 O10           -1.9666     4.2117     0.2782 O.2     
  11 C11           -4.2394     5.5571     0.2188 C.ar    
  12 C12           -4.1084     6.3553    -0.9026 C.ar    
  13 C13           -4.0411     7.7288    -0.7702 C.ar    
  14 C14           -4.1050     8.3070     0.4892 C.ar    
  15 C15           -4.2365     7.5040     1.6128 C.ar    
  16 C16           -4.3091     6.1313     1.4746 C.ar    
  17 O17           -4.0386     9.6579     0.6221 O.3     
  18 C18           -4.1832    10.1879     1.9413 C.3     
  19 C19           -3.1403     9.5805     2.8438 C.2     
  20 C20           -4.0026    11.7067     1.9033 C.3     
  21 C21           -5.1351    12.3347     1.0884 C.3     
  22 C22           -5.5773     9.8532     2.4754 C.3     
  23 O23           -3.4022     9.3511     4.0008 O.2     
  24 O24           -1.9205     9.2943     2.3623 O.3     
  25 C25           -4.9545    13.8536     1.0504 C.3     
  26 C26            0.4095    -1.1997    -1.7195 C.3     
  27 C27            1.9384     2.2957     1.5188 C.3     
  28 H28            2.1120     0.1640    -0.1288 H       
  29 H29           -0.6483     3.0532     1.3598 H       
  30 H30           -1.9531     0.0707    -1.4130 H       
  31 H31           -3.5092     1.5580    -0.0319 H       
  32 H32           -4.7693     3.8101    -0.8864 H       
  33 H33           -4.9142     3.6435     0.8798 H       
  34 H34           -4.0583     5.9046    -1.8828 H       
  35 H35           -3.9384     8.3518    -1.6464 H       
  36 H36           -4.2865     7.9517     2.5943 H       
  37 H37           -4.4114     5.5057     2.3490 H       
  38 H38           -4.0244    12.1007     2.9193 H       
  39 H39           -3.0454    11.9474     1.4407 H       
  40 H40           -5.1133    11.9407     0.0723 H       
  41 H41           -6.0923    12.0941     1.5509 H       
  42 H42           -5.6677     8.7747     2.6044 H       
  43 H43           -5.7271    10.3478     3.4351 H       
  44 H44           -6.3303    10.1988     1.7671 H       
  45 H45           -1.2851     8.9057     2.9791 H       
  46 H46           -5.7613    14.3009     0.4698 H       
  47 H47           -4.9763    14.2476     2.0665 H       
  48 H48           -3.9973    14.0942     0.5878 H       
  49 H49            0.2507    -2.1124    -1.1452 H       
  50 H50           -0.2509    -1.1966    -2.5867 H       
  51 H51            1.4465    -1.1557    -2.0525 H       
  52 H52            2.4344     3.0704     0.9341 H       
  53 H53            1.5114     2.7374     2.4191 H       
  54 H54            2.6633     1.5310     1.7978 H       
@<TRIPOS>BOND
   1    1    2 ar
   2    1   26 1
   3    1    6 ar
   4    2    3 ar
   5    2   28 1
   6    3    4 ar
   7    3   27 1
   8    4    5 ar
   9    4   29 1
  10    5    6 ar
  11    5    7 1
  12    6   30 1
  13    7    8 am
  14    7   31 1
  15    8    9 1
  16    8   10 2
  17    9   11 1
  18    9   32 1
  19    9   33 1
  20   11   12 ar
  21   11   16 ar
  22   12   13 ar
  23   12   34 1
  24   13   14 ar
  25   13   35 1
  26   14   15 ar
  27   14   17 1
  28   15   16 ar
  29   15   36 1
  30   16   37 1
  31   17   18 1
  32   18   19 1
  33   18   20 1
  34   18   22 1
  35   19   23 2
  36   19   24 1
  37   20   21 1
  38   20   38 1
  39   20   39 1
  40   21   25 1
  41   21   40 1
  42   21   41 1
  43   22   42 1
  44   22   43 1
  45   22   44 1
  46   24   45 1
  47   25   46 1
  48   25   47 1
  49   25   48 1
  50   26   49 1
  51   26   50 1
  52   26   51 1
  53   27   52 1
  54   27   53 1
  55   27   54 1

#	End of record

