#	Name: ASD08830028
#	Creating user name:	WinNT
#	Creation time:	15. 06. 2019 21:19

#	Modifying user name:	WinNT
#	Modification time:	15. 06. 2019 21:19

#	Program:	/corina/corina34_cracker 3.40 0067  02.08.2006

@<TRIPOS>MOLECULE
ASD08830028
  42   44    0    0    0
SMALL
NO_CHARGES


@<TRIPOS>ATOM
   1 C1            -0.0199     1.4921     0.2894 C.ar    
   2 C2            -0.0077     0.0770     0.3875 C.ar    
   3 C3             1.1956     2.1950     0.1876 C.ar    
   4 C4             2.3723     1.5205     0.1830 C.ar    
   5 C5             2.3992     0.1150     0.2793 C.ar    
   6 C6             1.2172    -0.6058     0.3813 C.ar    
   7 C7             3.6881    -0.5931     0.2711 C.2     
   8 C8             4.9742     0.1844     0.1600 C.3     
   9 C9             6.1586    -0.7842     0.1746 C.3     
  10 N10            7.4123    -0.0263     0.0663 N.3     
  11 O11            3.7159    -1.8027     0.3537 O.2     
  12 C12            8.5797    -0.9050     0.2642 C.3     
  13 C13           -1.2496     2.1699     0.2898 C.ar    
  14 C14           -1.2263    -0.6179     0.4889 C.ar    
  15 C15           -2.3984     0.0744     0.4916 C.ar    
  16 C16           -2.4102     1.4634     0.3839 C.ar    
  17 C17            9.4683    -0.7741    -0.9906 C.3     
  18 C18            9.0440     0.5978    -1.5778 C.3     
  19 C19            7.5283     0.6195    -1.2586 C.3     
  20 C20            8.1183    -2.3547     0.4264 C.3     
  21 O21            7.5363    -2.8091    -0.7971 O.3     
  22 H22            1.1911     3.2724     0.1128 H       
  23 H23            3.3002     2.0675     0.1042 H       
  24 H24            1.2408    -1.6830     0.4549 H       
  25 H25            4.9781     0.7491    -0.7723 H       
  26 H26            5.0569     0.8721     1.0017 H       
  27 H27            6.1547    -1.3489     1.1069 H       
  28 H28            6.0759    -1.4719    -0.6671 H       
  29 H29            9.1358    -0.5896     1.1470 H       
  30 H30           -1.2750     3.2470     0.2161 H       
  31 H31           -1.2321    -1.6953     0.5639 H       
  32 H32           -3.3328    -0.4614     0.5693 H       
  33 H33           -3.3536     1.9890     0.3889 H       
  34 H34           10.5233    -0.7663    -0.7166 H       
  35 H35            9.2584    -1.5772    -1.6970 H       
  36 H36            9.5608     1.4147    -1.0743 H       
  37 H37            9.2170     0.6324    -2.6535 H       
  38 H38            6.9747     0.0524    -2.0069 H       
  39 H39            7.1647     1.6460    -1.2135 H       
  40 H40            8.9736    -2.9823     0.6769 H       
  41 H41            7.3784    -2.4134     1.2245 H       
  42 H42            7.2208    -3.7227    -0.7671 H       
@<TRIPOS>BOND
   1    1    2 ar
   2    1    3 ar
   3    1   13 ar
   4    2   14 ar
   5    2    6 ar
   6    3    4 ar
   7    3   22 1
   8    4    5 ar
   9    4   23 1
  10    5    6 ar
  11    5    7 1
  12    6   24 1
  13    7    8 1
  14    7   11 2
  15    8    9 1
  16    8   25 1
  17    8   26 1
  18    9   10 1
  19    9   27 1
  20    9   28 1
  21   10   12 1
  22   10   19 1
  23   12   17 1
  24   12   20 1
  25   12   29 1
  26   13   16 ar
  27   13   30 1
  28   14   15 ar
  29   14   31 1
  30   15   16 ar
  31   15   32 1
  32   16   33 1
  33   17   18 1
  34   17   34 1
  35   17   35 1
  36   18   19 1
  37   18   36 1
  38   18   37 1
  39   19   38 1
  40   19   39 1
  41   20   21 1
  42   20   40 1
  43   20   41 1
  44   21   42 1

#	End of record

