#	Name: ASD00460041
#	Creating user name:	WinNT
#	Creation time:	15. 06. 2019 18:36

#	Modifying user name:	WinNT
#	Modification time:	15. 06. 2019 18:36

#	Program:	/corina/corina34_cracker 3.40 0067  02.08.2006

@<TRIPOS>MOLECULE
ASD00460041
  53   55    0    0    0
SMALL
NO_CHARGES


@<TRIPOS>ATOM
   1 C1            -0.0166     1.3763     0.0096 C.ar    
   2 C2             0.0021    -0.0041     0.0020 C.ar    
   3 C3            -1.2942    -0.7726     0.0098 C.3     
   4 N4            -1.1663    -1.9397     0.8926 N.3     
   5 C5            -2.4786    -2.3630     1.3991 C.3     
   6 C6            -2.4305    -3.8258     1.7582 C.ar    
   7 C7            -3.5049    -4.6450     1.4657 C.ar    
   8 C8            -3.4607    -5.9868     1.7951 C.ar    
   9 C9            -2.3420    -6.5095     2.4166 C.ar    
  10 C10           -1.2673    -5.6905     2.7083 C.ar    
  11 C11           -1.3097    -4.3496     2.3749 C.ar    
  12 C12           -2.8340    -1.5443     2.6418 C.3     
  13 C13            1.2066    -0.6844    -0.0131 C.ar    
  14 C14            2.4007     0.0117    -0.0208 C.ar    
  15 C15            2.3966     1.3970    -0.0133 C.ar    
  16 C16            1.1806     2.0875     0.0020 C.ar    
  17 C17            1.1662     3.5707     0.0096 C.ar    
  18 C18            1.9432     4.2731     0.9292 C.ar    
  19 C19            0.3801     4.2671    -0.9063 C.ar    
  20 C20            0.3709     5.6473    -0.8950 C.ar    
  21 C21            1.1402     6.3391     0.0229 C.ar    
  22 C22            1.9262     5.6529     0.9314 C.ar    
  23 C23           -1.6182    -1.2405    -1.4104 C.3     
  24 O24            3.5695     2.0823    -0.0204 O.3     
  25 C25            4.7719     1.3101    -0.0356 C.3     
  26 C26            2.7618     6.4137     1.9284 C.3     
  27 F27            2.5767     7.7876     1.7400 F       
  28 F28            2.3725     6.0644     3.2260 F       
  29 F29            4.1117     6.0955     1.7449 F       
  30 H30           -0.9589     1.9041     0.0169 H       
  31 H31           -2.0959    -0.1291     0.3721 H       
  32 H32           -0.6981    -2.6995     0.4220 H       
  33 H33           -3.2340    -2.2024     0.6299 H       
  34 H34           -4.3789    -4.2367     0.9802 H       
  35 H35           -4.3004    -6.6267     1.5673 H       
  36 H36           -2.3078    -7.5577     2.6746 H       
  37 H37           -0.3934    -6.0988     3.1941 H       
  38 H38           -0.4700    -3.7097     2.6028 H       
  39 H39           -2.8688    -0.4862     2.3821 H       
  40 H40           -3.8078    -1.8584     3.0176 H       
  41 H41           -2.0786    -1.7049     3.4110 H       
  42 H42            1.2139    -1.7644    -0.0186 H       
  43 H43            3.3379    -0.5250    -0.0323 H       
  44 H44            2.5572     3.7385     1.6389 H       
  45 H45           -0.2204     3.7279    -1.6239 H       
  46 H46           -0.2379     6.1881    -1.6044 H       
  47 H47            1.1305     7.4190     0.0277 H       
  48 H48           -2.5558    -1.7963    -1.4048 H       
  49 H49           -1.7131    -0.3745    -2.0655 H       
  50 H50           -0.8165    -1.8840    -1.7728 H       
  51 H51            4.7918     0.6862    -0.9291 H       
  52 H52            5.6329     1.9785    -0.0399 H       
  53 H53            4.8081     0.6767     0.8507 H       
@<TRIPOS>BOND
   1    1    2 ar
   2    1   16 ar
   3    1   30 1
   4    2    3 1
   5    2   13 ar
   6    3    4 1
   7    3   23 1
   8    3   31 1
   9    4    5 1
  10    4   32 1
  11    5    6 1
  12    5   12 1
  13    5   33 1
  14    6    7 ar
  15    6   11 ar
  16    7    8 ar
  17    7   34 1
  18    8    9 ar
  19    8   35 1
  20    9   10 ar
  21    9   36 1
  22   10   11 ar
  23   10   37 1
  24   11   38 1
  25   12   39 1
  26   12   40 1
  27   12   41 1
  28   13   14 ar
  29   13   42 1
  30   14   15 ar
  31   14   43 1
  32   15   24 1
  33   15   16 ar
  34   16   17 1
  35   17   18 ar
  36   17   19 ar
  37   18   22 ar
  38   18   44 1
  39   19   20 ar
  40   19   45 1
  41   20   21 ar
  42   20   46 1
  43   21   22 ar
  44   21   47 1
  45   22   26 1
  46   23   48 1
  47   23   49 1
  48   23   50 1
  49   24   25 1
  50   25   51 1
  51   25   52 1
  52   25   53 1
  53   26   27 1
  54   26   28 1
  55   26   29 1

#	End of record

