#	Name: ASD01912112
#	Creating user name:	WinNT
#	Creation time:	15. 06. 2019 19:59

#	Modifying user name:	WinNT
#	Modification time:	15. 06. 2019 19:59

#	Program:	/corina/corina34_cracker 3.40 0067  02.08.2006

@<TRIPOS>MOLECULE
ASD01912112
  62   66    0    0    0
SMALL
NO_CHARGES


@<TRIPOS>ATOM
   1 N1             0.0263     1.3893    -0.1039 N.2     
   2 C2            -0.0381     0.0580     0.0780 C.2     
   3 C3             1.2335    -0.4200     0.1486 C.2     
   4 N4             2.0696     0.6518     0.0053 N.pl3   
   5 C5             1.2858     1.7582    -0.1492 C.2     
   6 C6             1.7735     3.1419    -0.3375 C.ar    
   7 C7             0.9275     4.1171    -0.8669 C.ar    
   8 C8             1.3884     5.4060    -1.0396 C.ar    
   9 C9             2.6865     5.7323    -0.6895 C.ar    
  10 C10            3.5305     4.7699    -0.1645 C.ar    
  11 C11            3.0798     3.4789     0.0189 C.ar    
  12 C12           -1.2794    -0.7483     0.1833 C.ar    
  13 C13           -2.5246    -0.1292     0.0930 C.ar    
  14 C14           -3.6762    -0.8829     0.1915 C.ar    
  15 C15           -3.5959    -2.2530     0.3799 C.ar    
  16 C16           -2.3601    -2.8726     0.4706 C.ar    
  17 C17           -1.2033    -2.1276     0.3670 C.ar    
  18 C18            3.5342     0.6189     0.0158 C.3     
  19 C19            4.0319     0.8519     1.4190 C.2     
  20 N20            5.3558     0.8645     1.6711 N.am    
  21 O21            3.2411     1.0282     2.3215 O.2     
  22 F22           -4.7260    -2.9871     0.4758 F       
  23 C23           -5.0234    -0.2144     0.0945 C.3     
  24 C24            5.8629     1.0902     3.0331 C.3     
  25 C25            6.8590    -0.0237     3.3725 C.3     
  26 N26            7.8904    -0.0887     2.3286 N.3     
  27 C27            7.3095    -0.4437     1.0269 C.3     
  28 C28            6.3317     0.6469     0.5924 C.3     
  29 C29            8.8968    -0.9715     2.6799 C.ar    
  30 N30            9.9141    -1.1556     1.8512 N.ar    
  31 C31           10.8922    -1.9920     2.1567 C.ar    
  32 C32           10.8435    -2.6789     3.3596 C.ar    
  33 C33            9.7650    -2.4626     4.2029 C.ar    
  34 N34            8.8229    -1.6082     3.8395 N.ar    
  35 C35           -2.2791    -4.3633     0.6760 C.3     
  36 H36            1.5265    -1.4497     0.2910 H       
  37 H37           -0.0858     3.8634    -1.1413 H       
  38 H38            0.7346     6.1617    -1.4493 H       
  39 H39            3.0426     6.7426    -0.8270 H       
  40 H40            4.5429     5.0309     0.1061 H       
  41 H41            3.7395     2.7286     0.4291 H       
  42 H42           -2.5881     0.9389    -0.0534 H       
  43 H43           -0.2403    -2.6114     0.4379 H       
  44 H44            3.8783    -0.3542    -0.3348 H       
  45 H45            3.9198     1.3988    -0.6407 H       
  46 H46           -5.3441    -0.1926    -0.9470 H       
  47 H47           -5.7491    -0.7720     0.6866 H       
  48 H48           -4.9514     0.8049     0.4739 H       
  49 H49            6.3641     2.0569     3.0818 H       
  50 H50            5.0340     1.0683     3.7407 H       
  51 H51            7.3272     0.1875     4.3339 H       
  52 H52            6.3340    -0.9775     3.4250 H       
  53 H53            8.1046    -0.5370     0.2871 H       
  54 H54            6.7783    -1.3917     1.1120 H       
  55 H55            5.8140     0.3344    -0.3144 H       
  56 H56            6.8754     1.5732     0.4063 H       
  57 H57           11.7186    -2.1382     1.4769 H       
  58 H58           11.6286    -3.3680     3.6336 H       
  59 H59            9.6968    -2.9823     5.1472 H       
  60 H60           -2.2550    -4.8628    -0.2925 H       
  61 H61           -1.3732    -4.6048     1.2320 H       
  62 H62           -3.1506    -4.7007     1.2372 H       
@<TRIPOS>BOND
   1    1    2 1
   2    1    5 2
   3    2    3 2
   4    2   12 1
   5    3    4 1
   6    3   36 1
   7    4    5 1
   8    4   18 1
   9    5    6 1
  10    6    7 ar
  11    6   11 ar
  12    7    8 ar
  13    7   37 1
  14    8    9 ar
  15    8   38 1
  16    9   10 ar
  17    9   39 1
  18   10   11 ar
  19   10   40 1
  20   11   41 1
  21   12   13 ar
  22   12   17 ar
  23   13   14 ar
  24   13   42 1
  25   14   15 ar
  26   14   23 1
  27   15   16 ar
  28   15   22 1
  29   16   17 ar
  30   16   35 1
  31   17   43 1
  32   18   19 1
  33   18   44 1
  34   18   45 1
  35   19   20 am
  36   19   21 2
  37   20   24 1
  38   20   28 1
  39   23   46 1
  40   23   47 1
  41   23   48 1
  42   24   25 1
  43   24   49 1
  44   24   50 1
  45   25   26 1
  46   25   51 1
  47   25   52 1
  48   26   27 1
  49   26   29 1
  50   27   28 1
  51   27   53 1
  52   27   54 1
  53   28   55 1
  54   28   56 1
  55   29   30 ar
  56   29   34 ar
  57   30   31 ar
  58   31   32 ar
  59   31   57 1
  60   32   33 ar
  61   32   58 1
  62   33   34 ar
  63   33   59 1
  64   35   60 1
  65   35   61 1
  66   35   62 1

#	End of record

