#	Name: ASD03331623
#	Creating user name:	WinNT
#	Creation time:	15. 06. 2019 20:39

#	Modifying user name:	WinNT
#	Modification time:	15. 06. 2019 20:39

#	Program:	/corina/corina34_cracker 3.40 0067  02.08.2006

@<TRIPOS>MOLECULE
ASD03331623
  57   56    0    0    0
SMALL
NO_CHARGES


@<TRIPOS>ATOM
   1 C1            -0.0163     1.3499     0.0095 C.2     
   2 C2             0.0021    -0.0041     0.0020 C.2     
   3 C3             1.2350    -0.6937    -0.0135 C.2     
   4 C4             1.2534    -2.0477    -0.0209 C.2     
   5 C5             1.2222     3.4328     0.0088 C.2     
   6 C6             1.2403     2.0984     0.0015 C.2     
   7 C7             2.5169     4.2040     0.0006 C.3     
   8 C8             2.5298    -2.7617    -0.0369 C.2     
   9 C9             2.5479    -4.0961    -0.0443 C.2     
  10 C10            2.5204     5.1822    -1.1759 C.3     
  11 C11            3.8630    -4.8318    -0.0608 C.3     
  12 C12            3.7779     6.0515    -1.1126 C.3     
  13 C13            3.7814     7.0296    -2.2891 C.3     
  14 O14            3.6117     3.2953    -0.1322 O.3     
  15 O15            4.9350    -3.8936     0.0515 O.3     
  16 C16            3.9154    -5.8092     1.1152 C.3     
  17 O17            2.8434    -6.7474     1.0029 O.3     
  18 C18            5.2506    -6.5561     1.0984 C.3     
  19 C19            5.3555    -7.4412     2.3420 C.3     
  20 C20            6.6907    -8.1881     2.3252 C.3     
  21 C21            6.7956    -9.0732     3.5688 C.3     
  22 C22            8.1309    -9.8201     3.5520 C.3     
  23 C23            5.0199     7.8859    -2.2267 C.2     
  24 O24            5.8180     7.7298    -1.3330 O.2     
  25 O25            5.2366     8.8219    -3.1641 O.3     
  26 H26           -0.9588     1.8771     0.0168 H       
  27 H27           -0.9258    -0.5567     0.0079 H       
  28 H28            2.1629    -0.1411    -0.0193 H       
  29 H29            0.3255    -2.6004    -0.0150 H       
  30 H30            0.2797     3.9600     0.0207 H       
  31 H31            2.1828     1.5712    -0.0103 H       
  32 H32            2.6157     4.7581     0.9341 H       
  33 H33            3.4576    -2.2090    -0.0428 H       
  34 H34            1.6200    -4.6488    -0.0384 H       
  35 H35            2.5111     4.6243    -2.1122 H       
  36 H36            1.6364     5.8176    -1.1227 H       
  37 H37            3.9592    -5.3832    -0.9961 H       
  38 H38            3.7872     6.6093    -0.1762 H       
  39 H39            4.6619     5.4160    -1.1657 H       
  40 H40            3.7721     6.4717    -3.2254 H       
  41 H41            2.8974     7.6650    -2.2359 H       
  42 H42            3.5888     2.7675    -0.9421 H       
  43 H43            4.9131    -3.3664     0.8618 H       
  44 H44            3.8193    -5.2578     2.0505 H       
  45 H45            2.8653    -7.2745     0.1926 H       
  46 H46            5.3084    -7.1771     0.2045 H       
  47 H47            6.0694    -5.8365     1.0945 H       
  48 H48            5.2978    -6.8202     3.2359 H       
  49 H49            4.5368    -8.1607     2.3459 H       
  50 H50            6.7485    -8.8091     1.4313 H       
  51 H51            7.5095    -7.4686     2.3213 H       
  52 H52            6.7379    -8.4522     4.4627 H       
  53 H53            5.9769    -9.7927     3.5727 H       
  54 H54            8.1886   -10.4411     2.6581 H       
  55 H55            8.9496    -9.1006     3.5481 H       
  56 H56            8.2056   -10.4507     4.4379 H       
  57 H57            6.0448     9.3465    -3.0821 H       
@<TRIPOS>BOND
   1    1    2 2
   2    1    6 1
   3    1   26 1
   4    2    3 1
   5    2   27 1
   6    3    4 2
   7    3   28 1
   8    4    8 1
   9    4   29 1
  10    5    6 2
  11    5    7 1
  12    5   30 1
  13    6   31 1
  14    7   10 1
  15    7   14 1
  16    7   32 1
  17    8    9 2
  18    8   33 1
  19    9   11 1
  20    9   34 1
  21   10   12 1
  22   10   35 1
  23   10   36 1
  24   11   15 1
  25   11   16 1
  26   11   37 1
  27   12   13 1
  28   12   38 1
  29   12   39 1
  30   13   23 1
  31   13   40 1
  32   13   41 1
  33   14   42 1
  34   15   43 1
  35   16   17 1
  36   16   18 1
  37   16   44 1
  38   17   45 1
  39   18   19 1
  40   18   46 1
  41   18   47 1
  42   19   20 1
  43   19   48 1
  44   19   49 1
  45   20   21 1
  46   20   50 1
  47   20   51 1
  48   21   22 1
  49   21   52 1
  50   21   53 1
  51   22   54 1
  52   22   55 1
  53   22   56 1
  54   23   24 2
  55   23   25 1
  56   25   57 1

#	End of record

