#	Name: ASD00120012
#	Creating user name:	WinNT
#	Creation time:	15. 06. 2019 18:31

#	Modifying user name:	WinNT
#	Modification time:	15. 06. 2019 18:31

#	Program:	/corina/corina34_cracker 3.40 0067  02.08.2006

@<TRIPOS>MOLECULE
ASD00120012
  60   63    0    0    0
SMALL
NO_CHARGES


@<TRIPOS>ATOM
   1 O1             0.3557    -0.0852    -0.6726 O.2     
   2 C2             0.2025     1.0450    -0.2607 C.2     
   3 C3             1.3737     1.9916    -0.2040 C.3     
   4 N4             2.6023     1.2691    -0.5428 N.pl3   
   5 C5             2.8611     0.6284    -1.7030 C.2     
   6 N6             4.0546     0.1049    -1.6346 N.2     
   7 C7             4.5948     0.3898    -0.4405 C.2     
   8 C8             3.7046     1.1225     0.2554 C.2     
   9 S9             6.1920    -0.1027     0.1173 S.o2    
  10 O10            6.0746    -0.1337     1.5331 O.2     
  11 O11            6.4720    -1.2843    -0.6206 O.2     
  12 C12            7.2884     1.2464    -0.4011 C.3     
  13 C13            8.7757     0.9733    -0.1217 C.3     
  14 C14            9.0694     1.6169    -1.4872 C.3     
  15 C15            7.6437     1.2111    -1.8968 C.3     
  16 C16            1.1588     3.1293    -1.2042 C.3     
  17 C17            2.3290     4.1113    -1.1188 C.3     
  18 C18            2.2095     5.1458    -2.2396 C.3     
  19 C19            3.3797     6.1278    -2.1542 C.3     
  20 C20            3.3515     6.8382    -0.7994 C.3     
  21 C21            3.4710     5.8036     0.3215 C.3     
  22 C22            2.3008     4.8216     0.2360 C.3     
  23 N23           -1.0165     1.4563     0.1412 N.am    
  24 C24           -2.1014     0.5915     0.0655 C.ar    
  25 C25           -1.8808    -0.7810    -0.0174 C.ar    
  26 C26           -2.9620    -1.6344    -0.0923 C.ar    
  27 C27           -4.2509    -1.0799    -0.0818 C.ar    
  28 C28           -4.3909     0.3069     0.0036 C.ar    
  29 N29           -3.3318     1.0843     0.0787 N.ar    
  30 C30           -5.4399    -1.9487    -0.1602 C.2     
  31 O31           -5.3077    -3.1542    -0.2347 O.2     
  32 O32           -6.6730    -1.4056    -0.1494 O.3     
  33 H33            1.4598     2.4033     0.8016 H       
  34 H34            2.1912     0.5600    -2.5473 H       
  35 H35            3.8330     1.5132     1.2540 H       
  36 H36            6.9510     2.2230    -0.0540 H       
  37 H37            9.1725     1.5383     0.7217 H       
  38 H38            9.0240    -0.0871    -0.0764 H       
  39 H39            9.2193     2.6954    -1.4383 H       
  40 H40            9.8484     1.1054    -2.0525 H       
  41 H41            7.5825     0.2157    -2.3368 H       
  42 H42            7.1267     1.9681    -2.4864 H       
  43 H43            1.1007     2.7202    -2.2128 H       
  44 H44            0.2302     3.6493    -0.9690 H       
  45 H45            3.2679     3.5678    -1.2246 H       
  46 H46            2.2296     4.6397    -3.2048 H       
  47 H47            1.2706     5.6893    -2.1338 H       
  48 H48            4.3185     5.5843    -2.2600 H       
  49 H49            3.2945     6.8648    -2.9527 H       
  50 H50            4.1851     7.5377    -0.7386 H       
  51 H51            2.4126     7.3817    -0.6936 H       
  52 H52            4.4098     5.2601     0.2157 H       
  53 H53            3.4509     6.3097     1.2866 H       
  54 H54            1.3619     5.3652     0.3418 H       
  55 H55            2.3859     4.0846     1.0346 H       
  56 H56           -1.1363     2.3560     0.4834 H       
  57 H57           -0.8744    -1.1728    -0.0233 H       
  58 H58           -2.8199    -2.7030    -0.1578 H       
  59 H59           -5.3779     0.7452     0.0125 H       
  60 H60           -7.4217    -2.0153    -0.2028 H       
@<TRIPOS>BOND
   1    1    2 2
   2    2    3 1
   3    2   23 am
   4    3    4 1
   5    3   16 1
   6    3   33 1
   7    4    5 1
   8    4    8 1
   9    5    6 2
  10    5   34 1
  11    6    7 1
  12    7    8 2
  13    7    9 1
  14    8   35 1
  15    9   10 2
  16    9   11 2
  17    9   12 1
  18   12   13 1
  19   12   15 1
  20   12   36 1
  21   13   14 1
  22   13   37 1
  23   13   38 1
  24   14   15 1
  25   14   39 1
  26   14   40 1
  27   15   41 1
  28   15   42 1
  29   16   17 1
  30   16   43 1
  31   16   44 1
  32   17   18 1
  33   17   22 1
  34   17   45 1
  35   18   19 1
  36   18   46 1
  37   18   47 1
  38   19   20 1
  39   19   48 1
  40   19   49 1
  41   20   21 1
  42   20   50 1
  43   20   51 1
  44   21   22 1
  45   21   52 1
  46   21   53 1
  47   22   54 1
  48   22   55 1
  49   23   24 1
  50   23   56 1
  51   24   25 ar
  52   24   29 ar
  53   25   26 ar
  54   25   57 1
  55   26   27 ar
  56   26   58 1
  57   27   28 ar
  58   27   30 1
  59   28   29 ar
  60   28   59 1
  61   30   31 2
  62   30   32 1
  63   32   60 1

#	End of record

