#	Name: ASD01208647
#	Creating user name:	WinNT
#	Creation time:	15. 06. 2019 19:10

#	Modifying user name:	WinNT
#	Modification time:	15. 06. 2019 19:10

#	Program:	/corina/corina34_cracker 3.40 0067  02.08.2006

@<TRIPOS>MOLECULE
ASD01208647
  21   21    0    0    0
SMALL
NO_CHARGES


@<TRIPOS>ATOM
   1 C1            -0.0168     1.3876     0.0097 C.ar    
   2 C2             0.0021    -0.0041     0.0020 C.ar    
   3 C3             1.2191    -0.6602    -0.0131 C.ar    
   4 C4             2.3826     0.1003    -0.0201 C.ar    
   5 C5             2.2898     1.4785    -0.0118 C.ar    
   6 N6             1.1138     2.0774     0.0026 N.ar    
   7 S7            -1.5590     2.2397     0.0216 S.3     
   8 C8            -1.0615     3.9841     0.0287 C.3     
   9 C9            -2.3087     4.8701     0.0394 C.3     
  10 C10           -1.8891     6.3415     0.0454 C.3     
  11 Cl11          -3.3589     7.3856     0.0580 Cl      
  12 Cl12           3.9363    -0.6739    -0.0385 Cl      
  13 H13           -0.9214    -0.5640     0.0082 H       
  14 H14            1.2647    -1.7392    -0.0190 H       
  15 H15            3.1910     2.0735    -0.0172 H       
  16 H16           -0.4635     4.1877     0.9170 H       
  17 H17           -0.4719     4.1974    -0.8629 H       
  18 H18           -2.9067     4.6665    -0.8489 H       
  19 H19           -2.8983     4.6568     0.9310 H       
  20 H20           -1.2911     6.5451     0.9337 H       
  21 H21           -1.2995     6.5548    -0.8462 H       
@<TRIPOS>BOND
   1    1    2 ar
   2    1    6 ar
   3    1    7 1
   4    2    3 ar
   5    2   13 1
   6    3    4 ar
   7    3   14 1
   8    4    5 ar
   9    4   12 1
  10    5    6 ar
  11    5   15 1
  12    7    8 1
  13    8    9 1
  14    8   16 1
  15    8   17 1
  16    9   10 1
  17    9   18 1
  18    9   19 1
  19   10   11 1
  20   10   20 1
  21   10   21 1

#	End of record

