#	Name: ASD01810313
#	Creating user name:	WinNT
#	Creation time:	15. 06. 2019 19:24

#	Modifying user name:	WinNT
#	Modification time:	15. 06. 2019 19:24

#	Program:	/corina/corina34_cracker 3.40 0067  02.08.2006

@<TRIPOS>MOLECULE
ASD01810313
  41   44    0    0    0
SMALL
NO_CHARGES


@<TRIPOS>ATOM
   1 C1             1.1571     2.2521    -0.5141 C.ar    
   2 C2             0.7802     0.9170    -0.4990 C.ar    
   3 C3             1.7225    -0.0792    -0.3474 C.ar    
   4 C4             3.0696     0.2529    -0.2073 C.ar    
   5 C5             3.4467     1.6060    -0.2232 C.ar    
   6 C6             2.4823     2.6020    -0.3773 C.ar    
   7 N7             4.0216    -0.7326    -0.0539 N.pl3   
   8 C8             5.3261    -0.4657     0.0855 C.2     
   9 C9             5.8170     0.8246     0.0860 C.2     
  10 C10            4.8746     1.9438    -0.0741 C.2     
  11 O11            5.2577     3.1005    -0.0806 O.2     
  12 C12            3.5871    -2.1316    -0.0427 C.3     
  13 C13            3.4445    -2.6248    -1.4595 C.ar    
  14 C14            4.5276    -2.5711    -2.3215 C.ar    
  15 C15            4.4007    -3.0226    -3.6223 C.ar    
  16 C16            3.1820    -3.5314    -4.0637 C.ar    
  17 C17            2.0966    -3.5826    -3.1916 C.ar    
  18 C18            2.2345    -3.1348    -1.8934 C.ar    
  19 C19            7.2564     1.0764     0.2428 C.2     
  20 O20            7.7235     2.3410     0.2417 O.3     
  21 O21            8.0258     0.1444     0.3735 O.2     
  22 F22            1.3405    -1.3750    -0.3342 F       
  23 F23            5.7088    -2.0766    -1.8910 F       
  24 C24            3.0395    -4.0173    -5.4594 C.2     
  25 C25            1.9099    -4.5371    -6.0208 C.2     
  26 N26            2.1984    -4.8544    -7.2990 N.pl3   
  27 N27            3.5378    -4.5251    -7.5400 N.2     
  28 C28            4.0442    -4.0197    -6.4465 C.2     
  29 H29            0.4084     3.0205    -0.6382 H       
  30 H30           -0.2619     0.6548    -0.6068 H       
  31 H31            2.7732     3.6420    -0.3897 H       
  32 H32            6.0175    -1.2872     0.2019 H       
  33 H33            4.3269    -2.7377     0.4803 H       
  34 H34            2.6271    -2.2098     0.4676 H       
  35 H35            5.2449    -2.9804    -4.2945 H       
  36 H36            1.1495    -3.9765    -3.5299 H       
  37 H37            1.3932    -3.1748    -1.2174 H       
  38 H38            8.6777     2.4566     0.3479 H       
  39 H39            0.9571    -4.6703    -5.5301 H       
  40 H40            1.5843    -5.2441    -7.9408 H       
  41 H41            5.0584    -3.6706    -6.3199 H       
@<TRIPOS>BOND
   1    1    2 ar
   2    1    6 ar
   3    1   29 1
   4    2    3 ar
   5    2   30 1
   6    3    4 ar
   7    3   22 1
   8    4    5 ar
   9    4    7 1
  10    5    6 ar
  11    5   10 1
  12    6   31 1
  13    7    8 1
  14    7   12 1
  15    8    9 2
  16    8   32 1
  17    9   10 1
  18    9   19 1
  19   10   11 2
  20   12   13 1
  21   12   33 1
  22   12   34 1
  23   13   14 ar
  24   13   18 ar
  25   14   15 ar
  26   14   23 1
  27   15   16 ar
  28   15   35 1
  29   16   17 ar
  30   16   24 1
  31   17   18 ar
  32   17   36 1
  33   18   37 1
  34   19   20 1
  35   19   21 2
  36   20   38 1
  37   24   25 2
  38   24   28 1
  39   25   26 1
  40   25   39 1
  41   26   27 1
  42   26   40 1
  43   27   28 2
  44   28   41 1

#	End of record

