#	Name: ASD01910601
#	Creating user name:	WinNT
#	Creation time:	15. 06. 2019 19:56

#	Modifying user name:	WinNT
#	Modification time:	15. 06. 2019 19:56

#	Program:	/corina/corina34_cracker 3.40 0067  02.08.2006

@<TRIPOS>MOLECULE
ASD01910601
  44   47    0    0    0
SMALL
NO_CHARGES


@<TRIPOS>ATOM
   1 C1             0.0268     1.3054    -0.0557 C.ar    
   2 C2             0.0597    -0.0808    -0.0646 C.ar    
   3 C3             1.2725    -0.7507    -0.0704 C.ar    
   4 C4             2.4567    -0.0394    -0.0678 C.ar    
   5 C5             2.4281     1.3592    -0.0593 C.ar    
   6 C6             1.2015     2.0266    -0.0530 C.ar    
   7 C7             3.6894     2.1265    -0.0559 C.2     
   8 N8             3.8132     3.4427    -0.0481 N.2     
   9 C9             5.1341     3.6795    -0.0480 C.2     
  10 N10            5.7406     2.5292    -0.0556 N.2     
  11 O11            4.9339     1.6236    -0.0544 O.3     
  12 C12            5.7952     5.0338    -0.0409 C.3     
  13 C13            6.6687     5.1693     1.2084 C.3     
  14 C14            7.3146     6.5565     1.2332 C.3     
  15 C15            8.2069     6.7221    -0.0009 C.3     
  16 N16            7.4068     6.4505    -1.2029 N.am    
  17 C17            6.6703     5.1821    -1.2895 C.3     
  18 C18            7.3495     7.3478    -2.2069 C.2     
  19 C19            8.0180     8.6559    -2.0664 C.ar    
  20 O20            6.7470     7.0795    -3.2283 O.2     
  21 C21            9.3776     8.7186    -1.7520 C.ar    
  22 C22            9.9970     9.9425    -1.6225 C.ar    
  23 C23            9.2743    11.1126    -1.8035 C.ar    
  24 C24            7.9256    11.0596    -2.1155 C.ar    
  25 C25            7.2939     9.8387    -2.2534 C.ar    
  26 F26            9.8883    12.3091    -1.6745 F       
  27 F27           -1.0956    -0.7811    -0.0672 F       
  28 F28            5.9787     9.7870    -2.5581 F       
  29 F29            3.6393    -0.6927    -0.0729 F       
  30 H30           -0.9219     1.8215    -0.0555 H       
  31 H31            1.2920    -1.8305    -0.0766 H       
  32 H32            1.1733     3.1062    -0.0468 H       
  33 H33            5.0314     5.8114    -0.0369 H       
  34 H34            6.0525     5.0396     2.0981 H       
  35 H35            7.4471     4.4065     1.1917 H       
  36 H36            6.5369     7.3201     1.2250 H       
  37 H37            7.9179     6.6607     2.1350 H       
  38 H38            8.5908     7.7415    -0.0401 H       
  39 H39            9.0376     6.0184     0.0517 H       
  40 H40            7.3757     4.3528    -1.3420 H       
  41 H41            6.0403     5.1854    -2.1790 H       
  42 H42            9.9424     7.8090    -1.6103 H       
  43 H43           11.0481     9.9910    -1.3791 H       
  44 H44            7.3680    11.9740    -2.2549 H       
@<TRIPOS>BOND
   1    1    2 ar
   2    1    6 ar
   3    1   30 1
   4    2    3 ar
   5    2   27 1
   6    3    4 ar
   7    3   31 1
   8    4    5 ar
   9    4   29 1
  10    5    6 ar
  11    5    7 1
  12    6   32 1
  13    7    8 2
  14    7   11 1
  15    8    9 1
  16    9   10 2
  17    9   12 1
  18   10   11 1
  19   12   13 1
  20   12   17 1
  21   12   33 1
  22   13   14 1
  23   13   34 1
  24   13   35 1
  25   14   15 1
  26   14   36 1
  27   14   37 1
  28   15   16 1
  29   15   38 1
  30   15   39 1
  31   16   17 1
  32   16   18 am
  33   17   40 1
  34   17   41 1
  35   18   19 1
  36   18   20 2
  37   19   21 ar
  38   19   25 ar
  39   21   22 ar
  40   21   42 1
  41   22   23 ar
  42   22   43 1
  43   23   24 ar
  44   23   26 1
  45   24   25 ar
  46   24   44 1
  47   25   28 1

#	End of record

