#	Name: ASD00111108
#	Creating user name:	WinNT
#	Creation time:	15. 06. 2019 18:30

#	Modifying user name:	WinNT
#	Modification time:	15. 06. 2019 18:30

#	Program:	/corina/corina34_cracker 3.40 0067  02.08.2006

@<TRIPOS>MOLECULE
ASD00111108
  37   38    0    0    0
SMALL
NO_CHARGES


@<TRIPOS>ATOM
   1 N1            -0.0211     1.4295     0.0473 N.am    
   2 C2             0.0179    -0.0235     0.0478 C.3     
   3 C3             0.6763    -0.4912    -1.2397 C.2     
   4 C4             2.1465    -0.3656    -1.3375 C.ar    
   5 C5             2.7410     0.8939    -1.3628 C.ar    
   6 C6             1.8676     2.1329    -1.3528 C.3     
   7 C7             1.1813     2.2608     0.0050 C.3     
   8 C8             4.1110     1.0153    -1.4134 C.ar    
   9 C9             4.9038    -0.1253    -1.4648 C.ar    
  10 C10            4.3164    -1.3834    -1.4635 C.ar    
  11 C11            2.9445    -1.5092    -1.3994 C.ar    
  12 C12           -0.0398    -0.9929    -2.2366 C.2     
  13 C13            0.7950     3.7223     0.2414 C.3     
  14 O14            6.2565    -0.0089    -1.5159 O.3     
  15 C15            7.0106    -1.2217    -1.5670 C.3     
  16 C16           -1.2224     2.0395     0.0818 C.2     
  17 O17           -1.2869     3.2473     0.1719 O.2     
  18 C18           -2.4856     1.2209     0.0086 C.3     
  19 F19           -3.5957     2.0705     0.0620 F       
  20 F20           -2.5061     0.5015    -1.1911 F       
  21 F21           -2.5274     0.3306     1.0869 F       
  22 H22            0.5963    -0.3737     0.9027 H       
  23 H23           -0.9971    -0.4168     0.1036 H       
  24 H24            2.4842     3.0136    -1.5327 H       
  25 H25            1.1129     2.0518    -2.1351 H       
  26 H26            1.8687     1.9410     0.7881 H       
  27 H27            4.5686     1.9936    -1.4136 H       
  28 H28            4.9360    -2.2665    -1.5135 H       
  29 H29            2.4894    -2.4886    -1.3963 H       
  30 H30           -1.1125    -1.0755    -2.1427 H       
  31 H31            0.4497    -1.3190    -3.1424 H       
  32 H32            0.2156     3.8007     1.1613 H       
  33 H33            1.6976     4.3272     0.3278 H       
  34 H34            0.1966     4.0800    -0.5965 H       
  35 H35            6.8013    -1.8174    -0.6785 H       
  36 H36            6.7313    -1.7859    -2.4568 H       
  37 H37            8.0743    -0.9868    -1.6046 H       
@<TRIPOS>BOND
   1    1    2 1
   2    1    7 1
   3    1   16 am
   4    2    3 1
   5    2   22 1
   6    2   23 1
   7    3    4 1
   8    3   12 2
   9    4    5 ar
  10    4   11 ar
  11    5    6 1
  12    5    8 ar
  13    6    7 1
  14    6   24 1
  15    6   25 1
  16    7   13 1
  17    7   26 1
  18    8    9 ar
  19    8   27 1
  20    9   10 ar
  21    9   14 1
  22   10   11 ar
  23   10   28 1
  24   11   29 1
  25   12   30 1
  26   12   31 1
  27   13   32 1
  28   13   33 1
  29   13   34 1
  30   14   15 1
  31   15   35 1
  32   15   36 1
  33   15   37 1
  34   16   17 2
  35   16   18 1
  36   18   19 1
  37   18   20 1
  38   18   21 1

#	End of record

