#	Name: ASD03330875
#	Creating user name:	WinNT
#	Creation time:	15. 06. 2019 20:38

#	Modifying user name:	WinNT
#	Modification time:	15. 06. 2019 20:38

#	Program:	/corina/corina34_cracker 3.40 0067  02.08.2006

@<TRIPOS>MOLECULE
ASD03330875
  57   59    0    0    0
SMALL
NO_CHARGES


@<TRIPOS>ATOM
   1 C1            -0.0374     1.2590     0.1954 C.2     
   2 C2            -0.0606    -0.2184     0.4913 C.3     
   3 N3             1.1055     2.0028     0.1494 N.pl3   
   4 N4             1.3112    -0.7350     0.3353 N.3     
   5 C5             2.2763     0.0870     1.0785 C.3     
   6 C6             2.4405     1.4477     0.3889 C.3     
   7 C7             0.7494     3.2805    -0.1449 C.2     
   8 N8            -0.5577     3.3310    -0.2730 N.2     
   9 C9            -1.0706     2.0952    -0.0731 C.2     
  10 C10           -2.4957     1.7250    -0.1337 C.2     
  11 O11           -2.8342     0.5744     0.0679 O.2     
  12 N12           -3.4239     2.6615    -0.4126 N.am    
  13 C13            1.3932    -2.1432     0.7454 C.3     
  14 C14           -5.5757     3.2681    -1.3565 C.2     
  15 C15           -4.8407     2.2935    -0.4729 C.3     
  16 C16           -5.4378     2.3312     0.9353 C.3     
  17 C17           -5.3719     3.7598     1.4790 C.3     
  18 O18           -5.1570     4.3982    -1.4925 O.2     
  19 N19           -6.6984     2.8840    -1.9957 N.am    
  20 C20           -7.4724     3.8596    -2.7672 C.3     
  21 C21           -6.8963     1.8721     0.8832 C.3     
  22 C22           -4.6422     1.3995     1.8517 C.3     
  23 C23            1.6769     4.4231    -0.2951 C.ar    
  24 C24            1.4108     5.6319     0.3514 C.ar    
  25 C25            2.2806     6.6947     0.2071 C.ar    
  26 C26            3.4134     6.5638    -0.5758 C.ar    
  27 C27            3.6829     5.3679    -1.2193 C.ar    
  28 C28            2.8239     4.2957    -1.0785 C.ar    
  29 Cl29           5.1070     5.2138    -2.2001 Cl      
  30 Cl30          -0.0107     5.7984     1.3339 Cl      
  31 H31           -0.4030    -0.3844     1.5127 H       
  32 H32           -0.7266    -0.7239    -0.2081 H       
  33 H33            1.9160     0.2375     2.0962 H       
  34 H34            3.2393    -0.4227     1.1080 H       
  35 H35            2.9611     1.3192    -0.5601 H       
  36 H36            3.0082     2.1197     1.0325 H       
  37 H37           -3.1540     3.5792    -0.5734 H       
  38 H38            0.7223    -2.7410     0.1284 H       
  39 H39            2.4158    -2.4992     0.6202 H       
  40 H40            1.1023    -2.2344     1.7919 H       
  41 H41           -4.9377     1.2878    -0.8819 H       
  42 H42           -5.9387     4.4236     0.8261 H       
  43 H43           -5.7973     3.7867     2.4822 H       
  44 H44           -4.3328     4.0869     1.5161 H       
  45 H45           -6.9938     1.9615    -1.9449 H       
  46 H46           -8.3393     3.3682    -3.2088 H       
  47 H47           -7.8057     4.6616    -2.1085 H       
  48 H48           -6.8480     4.2750    -3.5582 H       
  49 H49           -6.9384     0.8313     0.5621 H       
  50 H50           -7.3421     1.9650     1.8736 H       
  51 H51           -7.4477     2.4928     0.1769 H       
  52 H52           -3.6031     1.7266     1.8888 H       
  53 H53           -5.0676     1.4264     2.8549 H       
  54 H54           -4.6891     0.3818     1.4643 H       
  55 H55            2.0758     7.6303     0.7062 H       
  56 H56            4.0904     7.3980    -0.6858 H       
  57 H57            3.0377     3.3618    -1.5771 H       
@<TRIPOS>BOND
   1    1    2 1
   2    1    3 1
   3    1    9 2
   4    2    4 1
   5    2   31 1
   6    2   32 1
   7    3    6 1
   8    3    7 1
   9    4    5 1
  10    4   13 1
  11    5    6 1
  12    5   33 1
  13    5   34 1
  14    6   35 1
  15    6   36 1
  16    7    8 2
  17    7   23 1
  18    8    9 1
  19    9   10 1
  20   10   11 2
  21   10   12 am
  22   12   15 1
  23   12   37 1
  24   13   38 1
  25   13   39 1
  26   13   40 1
  27   14   18 2
  28   14   19 am
  29   14   15 1
  30   15   16 1
  31   15   41 1
  32   16   17 1
  33   16   21 1
  34   16   22 1
  35   17   42 1
  36   17   43 1
  37   17   44 1
  38   19   20 1
  39   19   45 1
  40   20   46 1
  41   20   47 1
  42   20   48 1
  43   21   49 1
  44   21   50 1
  45   21   51 1
  46   22   52 1
  47   22   53 1
  48   22   54 1
  49   23   24 ar
  50   23   28 ar
  51   24   25 ar
  52   24   30 1
  53   25   26 ar
  54   25   55 1
  55   26   27 ar
  56   26   56 1
  57   27   28 ar
  58   27   29 1
  59   28   57 1

#	End of record

