#	Name: ASD07301032
#	Creating user name:	WinNT
#	Creation time:	15. 06. 2019 21:10

#	Modifying user name:	WinNT
#	Modification time:	15. 06. 2019 21:10

#	Program:	/corina/corina34_cracker 3.40 0067  02.08.2006

@<TRIPOS>MOLECULE
ASD07301032
  30   32    0    0    0
SMALL
NO_CHARGES


@<TRIPOS>ATOM
   1 C1            -0.0172     1.4148     0.0098 C.2     
   2 C2             0.0021    -0.0041     0.0020 C.2     
   3 C3             1.2456    -0.6721    -0.0134 C.2     
   4 C4             2.3923     0.0593    -0.0205 C.2     
   5 N5             2.3390     1.4075    -0.0127 N.pl3   
   6 N6             1.1131     2.0802     0.0026 N.2     
   7 O7            -1.0439    -0.6393     0.0090 O.2     
   8 O8             7.0350     4.2917    -0.3019 O.3     
   9 C9             6.9685     4.6087    -1.7048 C.3     
  10 O10            6.1467     3.5616    -2.2537 O.3     
  11 C11            5.3404     3.1559    -1.2289 C.ar    
  12 C12            5.8869     3.6051    -0.0282 C.ar    
  13 C13            4.1640     2.4271    -1.2224 C.ar    
  14 C14            3.5288     2.1440    -0.0197 C.ar    
  15 C15            4.0760     2.5934     1.1774 C.ar    
  16 C16            5.2518     3.3217     1.1705 C.ar    
  17 F17            3.4586     2.3188     2.3473 F       
  18 F18            6.3681     5.8573    -1.8987 F       
  19 F19            8.2454     4.5818    -2.2758 F       
  20 O20            1.2964    -2.0314    -0.0208 O.3     
  21 C21            2.5929    -2.6321    -0.0364 C.3     
  22 N22           -1.2319     2.0984     0.0193 N.pl3   
  23 H23            3.3494    -0.4410    -0.0319 H       
  24 H24            3.7397     2.0785    -2.1523 H       
  25 H25            5.6759     3.6698     2.1008 H       
  26 H26            2.4905    -3.7172    -0.0409 H       
  27 H27            3.1299    -2.3141    -0.9301 H       
  28 H28            3.1472    -2.3230     0.8498 H       
  29 H29           -2.0665     1.6042     0.0205 H       
  30 H30           -1.2425     3.0683     0.0246 H       
@<TRIPOS>BOND
   1    1    2 1
   2    1    6 2
   3    1   22 1
   4    2    3 1
   5    2    7 2
   6    3    4 2
   7    3   20 1
   8    4    5 1
   9    4   23 1
  10    5    6 1
  11    5   14 1
  12    8    9 1
  13    8   12 1
  14    9   10 1
  15    9   18 1
  16    9   19 1
  17   10   11 1
  18   11   12 ar
  19   11   13 ar
  20   12   16 ar
  21   13   14 ar
  22   13   24 1
  23   14   15 ar
  24   15   16 ar
  25   15   17 1
  26   16   25 1
  27   20   21 1
  28   21   26 1
  29   21   27 1
  30   21   28 1
  31   22   29 1
  32   22   30 1

#	End of record

