#	Name: ASD09116473
#	Creating user name:	WinNT
#	Creation time:	15. 06. 2019 21:21

#	Modifying user name:	WinNT
#	Modification time:	15. 06. 2019 21:21

#	Program:	/corina/corina34_cracker 3.40 0067  02.08.2006

@<TRIPOS>MOLECULE
ASD09116473
  80   85    0    0    0
SMALL
NO_CHARGES


@<TRIPOS>ATOM
   1 N1             0.8432    -0.9053    -4.7087 N.2     
   2 N2             1.1971    -1.8056    -5.7265 N.pl3   
   3 C3             1.9573    -0.3812    -4.2568 C.2     
   4 N4             2.9891    -0.9007    -4.9322 N.2     
   5 C5             2.5468    -1.7623    -5.8230 C.2     
   6 N6             3.3228    -2.4933    -6.7022 N.pl3   
   7 C7             0.3291    -2.5902    -6.4881 C.ar    
   8 N8             2.0514     0.5656    -3.2367 N.pl3   
   9 C9             3.3045     0.9685    -2.7718 C.ar    
  10 C10            3.4827     2.2597    -2.2874 C.ar    
  11 C11            4.3708     0.0759    -2.7888 C.ar    
  12 C12            5.6089     0.4707    -2.3306 C.ar    
  13 C13            5.7922     1.7682    -1.8490 C.ar    
  14 C14            4.7185     2.6604    -1.8283 C.ar    
  15 N15            0.6934    -3.0021    -7.6932 N.ar    
  16 N16           -0.0714    -3.7178    -8.4384 N.ar    
  17 C17           -1.2787    -4.0869    -8.0415 C.ar    
  18 C18           -1.7402    -3.7165    -6.7751 C.ar    
  19 C19           -0.9217    -2.9457    -5.9769 C.ar    
  20 C20           -2.1830    -4.8655    -8.9191 C.ar    
  21 C21           -3.4975    -4.4289    -9.0906 C.ar    
  22 C22           -3.9441    -3.1546    -8.4280 C.3     
  23 C23           -4.2026    -3.3626    -6.9382 C.3     
  24 C24           -3.0856    -4.1882    -6.3055 C.3     
  25 C25           -1.7424    -6.0162    -9.5635 C.ar    
  26 C26           -2.6172    -6.7329   -10.3571 C.ar    
  27 C27           -3.9249    -6.3086   -10.5074 C.ar    
  28 C28           -4.3649    -5.1587    -9.8748 C.ar    
  29 C29            7.1184     2.1945    -1.3565 C.2     
  30 C30            7.2911     3.4273    -0.8993 C.2     
  31 C31            8.6438     3.8621    -0.3970 C.3     
  32 N32            9.0667     5.0723    -1.1143 N.3     
  33 C33            8.2440     6.2366    -0.7204 C.3     
  34 C34            8.0939     7.1265    -1.9681 C.3     
  35 C35            8.8516     6.3800    -3.0900 C.3     
  36 C36            8.8743     4.9175    -2.5790 C.3     
  37 N37            8.1226     6.4750    -4.3619 N.3     
  38 C38            7.9939     7.8738    -4.7917 C.3     
  39 C39            8.7689     5.6623    -5.4010 C.3     
  40 C40            9.3859     8.4732    -5.0009 C.3     
  41 C41            7.8102     5.4858    -6.5802 C.3     
  42 H42            4.2876    -2.3928    -6.6965 H       
  43 H43            2.9028    -3.1070    -7.3249 H       
  44 H44            1.2462     0.9440    -2.8503 H       
  45 H45            2.6516     2.9493    -2.2713 H       
  46 H46            4.2282    -0.9278    -3.1612 H       
  47 H47            6.4365    -0.2230    -2.3438 H       
  48 H48            4.8575     3.6649    -1.4566 H       
  49 H49           -1.2387    -2.6221    -4.9965 H       
  50 H50           -3.1701    -2.3974    -8.5532 H       
  51 H51           -4.8612    -2.8075    -8.9040 H       
  52 H52           -4.2556    -2.3924    -6.4443 H       
  53 H53           -5.1514    -3.8831    -6.8079 H       
  54 H54           -3.2142    -5.2352    -6.5800 H       
  55 H55           -3.1401    -4.0935    -5.2210 H       
  56 H56           -0.7215    -6.3479    -9.4445 H       
  57 H57           -2.2790    -7.6260   -10.8614 H       
  58 H58           -4.6067    -6.8775   -11.1222 H       
  59 H59           -5.3877    -4.8336    -9.9954 H       
  60 H60            7.9471     1.5021    -1.3690 H       
  61 H61            6.4623     4.1197    -0.8869 H       
  62 H62            8.5839     4.0746     0.6704 H       
  63 H63            9.3682     3.0660    -0.5689 H       
  64 H64            7.2631     5.9012    -0.3834 H       
  65 H65            8.7427     6.7919     0.0740 H       
  66 H66            7.0416     7.2361    -2.2304 H       
  67 H67            8.5445     8.1034    -1.7925 H       
  68 H68            9.8649     6.7677    -3.1951 H       
  69 H69            9.7062     4.3687    -3.0203 H       
  70 H70            7.9279     4.4207    -2.7923 H       
  71 H71            7.4355     7.9166    -5.7268 H       
  72 H72            7.4650     8.4418    -4.0263 H       
  73 H73            9.6757     6.1622    -5.7416 H       
  74 H74            9.0248     4.6852    -4.9914 H       
  75 H75            9.2918     9.5257    -5.2684 H       
  76 H76            9.9627     8.3824    -4.0805 H       
  77 H77            9.8949     7.9387    -5.8029 H       
  78 H78            6.9083     4.9757    -6.2420 H       
  79 H79            7.5454     6.4636    -6.9827 H       
  80 H80            8.2939     4.8924    -7.3561 H       
@<TRIPOS>BOND
   1    1    2 1
   2    1    3 2
   3    2    7 1
   4    2    5 1
   5    3    4 1
   6    3    8 1
   7    4    5 2
   8    5    6 1
   9    6   42 1
  10    6   43 1
  11    7   15 ar
  12    7   19 ar
  13    8    9 1
  14    8   44 1
  15    9   10 ar
  16    9   11 ar
  17   10   14 ar
  18   10   45 1
  19   11   12 ar
  20   11   46 1
  21   12   13 ar
  22   12   47 1
  23   13   14 ar
  24   13   29 1
  25   14   48 1
  26   15   16 ar
  27   16   17 ar
  28   17   18 ar
  29   17   20 1
  30   18   19 ar
  31   18   24 1
  32   19   49 1
  33   20   21 ar
  34   20   25 ar
  35   21   22 1
  36   21   28 ar
  37   22   23 1
  38   22   50 1
  39   22   51 1
  40   23   24 1
  41   23   52 1
  42   23   53 1
  43   24   54 1
  44   24   55 1
  45   25   26 ar
  46   25   56 1
  47   26   27 ar
  48   26   57 1
  49   27   28 ar
  50   27   58 1
  51   28   59 1
  52   29   30 2
  53   29   60 1
  54   30   31 1
  55   30   61 1
  56   31   32 1
  57   31   62 1
  58   31   63 1
  59   32   33 1
  60   32   36 1
  61   33   34 1
  62   33   64 1
  63   33   65 1
  64   34   35 1
  65   34   66 1
  66   34   67 1
  67   35   36 1
  68   35   37 1
  69   35   68 1
  70   36   69 1
  71   36   70 1
  72   37   38 1
  73   37   39 1
  74   38   40 1
  75   38   71 1
  76   38   72 1
  77   39   41 1
  78   39   73 1
  79   39   74 1
  80   40   75 1
  81   40   76 1
  82   40   77 1
  83   41   78 1
  84   41   79 1
  85   41   80 1

#	End of record

