#	Name: ASD03930019
#	Creating user name:	WinNT
#	Creation time:	15. 06. 2019 20:47

#	Modifying user name:	WinNT
#	Modification time:	15. 06. 2019 20:47

#	Program:	/corina/corina34_cracker 3.40 0067  02.08.2006

@<TRIPOS>MOLECULE
ASD03930019
  45   47    0    0    0
SMALL
NO_CHARGES


@<TRIPOS>ATOM
   1 C1            -0.0164     1.3553     0.0095 C.ar    
   2 C2             0.0021    -0.0041     0.0020 C.ar    
   3 C3             1.2066    -0.6967     0.0010 C.ar    
   4 C4             2.4117    -0.0458     0.0059 C.ar    
   5 C5             2.4306     1.3560    -0.0184 C.ar    
   6 C6             1.1974     2.0643     0.0017 C.ar    
   7 C7             3.6458    -0.9054     0.0608 C.3     
   8 N8             4.7702    -0.2727    -0.6397 N.am    
   9 S9             5.1703     1.2716    -0.1488 S.o2    
  10 C10            3.6160     2.1124    -0.0821 C.ar    
  11 C11            3.5817     3.4688    -0.0893 C.ar    
  12 C12            2.3692     4.1548    -0.0393 C.ar    
  13 C13            1.1956     3.4692     0.0069 C.ar    
  14 O14            5.6434     1.1709     1.1874 O.2     
  15 O15            5.9144     1.8616    -1.2058 O.2     
  16 C16            5.5001    -0.9582    -1.7090 C.3     
  17 C17            2.3590     5.6617    -0.0365 C.3     
  18 C18            1.5845     6.1687    -1.2548 C.3     
  19 C19            1.6851     6.1648     1.2417 C.3     
  20 C20           -1.2972    -0.7675    -0.0047 C.3     
  21 C21           -2.1047    -0.4110     1.2449 C.3     
  22 C22           -2.0999    -0.3972    -1.2535 C.3     
  23 H23           -0.9566     1.8866     0.0169 H       
  24 H24            1.1923    -1.7766    -0.0034 H       
  25 H25            3.9210    -1.0681     1.1029 H       
  26 H26            3.4314    -1.8674    -0.4047 H       
  27 H27            4.5066     4.0246    -0.1340 H       
  28 H28            0.2595     4.0063     0.0481 H       
  29 H29            5.0302    -0.7394    -2.6679 H       
  30 H30            6.5335    -0.6118    -1.7234 H       
  31 H31            5.4798    -2.0335    -1.5314 H       
  32 H32            3.3833     6.0321    -0.0772 H       
  33 H33            0.5602     5.7983    -1.2141 H       
  34 H34            1.5771     7.2587    -1.2527 H       
  35 H35            2.0645     5.8104    -2.1654 H       
  36 H36            0.6608     5.7944     1.2824 H       
  37 H37            2.2369     5.8036     2.1096 H       
  38 H38            1.6777     7.2547     1.2437 H       
  39 H39           -1.0898    -1.8376    -0.0102 H       
  40 H40           -2.3121     0.6591     1.2505 H       
  41 H41           -3.0445    -0.9632     1.2401 H       
  42 H42           -1.5329    -0.6748     2.1346 H       
  43 H43           -1.5246    -0.6512    -2.1438 H       
  44 H44           -3.0396    -0.9494    -1.2584 H       
  45 H45           -2.3073     0.6729    -1.2480 H       
@<TRIPOS>BOND
   1    1    2 ar
   2    1    6 ar
   3    1   23 1
   4    2    3 ar
   5    2   20 1
   6    3    4 ar
   7    3   24 1
   8    4    5 ar
   9    4    7 1
  10    5    6 ar
  11    5   10 ar
  12    6   13 ar
  13    7    8 1
  14    7   25 1
  15    7   26 1
  16    8    9 am
  17    8   16 1
  18    9   10 1
  19    9   14 2
  20    9   15 2
  21   10   11 ar
  22   11   12 ar
  23   11   27 1
  24   12   13 ar
  25   12   17 1
  26   13   28 1
  27   16   29 1
  28   16   30 1
  29   16   31 1
  30   17   18 1
  31   17   19 1
  32   17   32 1
  33   18   33 1
  34   18   34 1
  35   18   35 1
  36   19   36 1
  37   19   37 1
  38   19   38 1
  39   20   21 1
  40   20   22 1
  41   20   39 1
  42   21   40 1
  43   21   41 1
  44   21   42 1
  45   22   43 1
  46   22   44 1
  47   22   45 1

#	End of record

