#	Name: ASD01680023
#	Creating user name:	WinNT
#	Creation time:	15. 06. 2019 19:22

#	Modifying user name:	WinNT
#	Modification time:	15. 06. 2019 19:22

#	Program:	/corina/corina34_cracker 3.40 0067  02.08.2006

@<TRIPOS>MOLECULE
ASD01680023
  82   86    0    0    0
SMALL
NO_CHARGES


@<TRIPOS>ATOM
   1 N1             0.2478     4.6556     2.1750 N.am    
   2 C2            -0.2706     3.3189     2.5184 C.3     
   3 C3             0.9575     2.5437     3.0574 C.3     
   4 C4             2.0891     3.0748     2.1383 C.3     
   5 C5             1.6914     4.5495     1.9174 C.3     
   6 C6            -0.4818     5.7865     2.1034 C.2     
   7 O7            -1.6813     5.7487     2.2938 O.2     
   8 O8             0.1184     6.9581     1.8210 O.3     
   9 C9            -1.3483     3.4272     3.5990 C.3     
  10 N10           -0.8327     4.2078     4.7264 N.pl3   
  11 C11           -1.6552     4.4890     5.8110 C.ar    
  12 C12           -2.9673     4.0259     5.8197 C.ar    
  13 C13           -3.7746     4.3129     6.9053 C.ar    
  14 C14           -3.2410     5.0563     7.9500 C.ar    
  15 C15           -1.9307     5.4838     7.8753 C.ar    
  16 N16           -1.1816     5.1904     6.8292 N.ar    
  17 O17            3.3561     2.9855     2.7932 O.3     
  18 C18            4.4574     2.7900     1.9039 C.3     
  19 C19            5.7360     2.7106     2.6977 C.2     
  20 N20            6.9118     2.5274     2.0649 N.am    
  21 O21            5.7069     2.8116     3.9059 O.2     
  22 C22            8.1547     2.4503     2.8365 C.3     
  23 C23            9.3339     2.2409     1.8844 C.3     
  24 N24            9.3391     3.3007     0.8730 N.am    
  25 C25            9.9199     3.0869    -0.3242 C.2     
  26 O26           10.3482     1.9869    -0.6026 O.2     
  27 C27           10.0373     4.2146    -1.3170 C.3     
  28 C28           10.9152     5.4068    -0.9313 C.3     
  29 C29           11.3924     4.4186    -1.9974 C.3     
  30 C30            8.8003     4.4957    -2.1306 C.ar    
  31 C31            8.3367     3.5548    -3.0310 C.ar    
  32 C32            7.2021     3.8126    -3.7773 C.ar    
  33 C33            6.5308     5.0112    -3.6229 C.ar    
  34 C34            6.9939     5.9516    -2.7218 C.ar    
  35 C35            8.1261     5.6920    -1.9724 C.ar    
  36 C36           10.6228     2.2842     2.6640 C.2     
  37 O37           11.4599     3.1151     2.4017 O.2     
  38 O38           10.8410     1.3997     3.6498 O.3     
  39 C39           -0.7295     8.1353     1.7600 C.3     
  40 C40            0.1108     9.3433     1.4348 C.ar    
  41 C41            0.3167     9.7076     0.1173 C.ar    
  42 C42            1.0875    10.8156    -0.1810 C.ar    
  43 C43            1.6520    11.5596     0.8382 C.ar    
  44 C44            1.4453    11.1958     2.1557 C.ar    
  45 C45            0.6709    10.0903     2.4541 C.ar    
  46 H46           -0.6699     2.8275     1.6311 H       
  47 H47            1.1510     2.7947     4.1003 H       
  48 H48            0.8260     1.4687     2.9338 H       
  49 H49            2.1037     2.5335     1.1924 H       
  50 H50            1.9070     4.8416     0.8896 H       
  51 H51            2.2394     5.1889     2.6094 H       
  52 H52           -2.2279     3.9216     3.1867 H       
  53 H53           -1.6201     2.4290     3.9424 H       
  54 H54            0.0827     4.5286     4.7159 H       
  55 H55           -3.3501     3.4504     4.9898 H       
  56 H56           -4.7971     3.9671     6.9397 H       
  57 H57           -3.8452     5.2977     8.8120 H       
  58 H58           -1.5118     6.0621     8.6855 H       
  59 H59            4.3161     1.8625     1.3490 H       
  60 H60            4.5141     3.6257     1.2064 H       
  61 H61            6.9350     2.4467     1.0985 H       
  62 H62            8.2960     3.3777     3.3914 H       
  63 H63            8.0980     1.6146     3.5340 H       
  64 H64            9.2379     1.2718     1.3947 H       
  65 H65            8.9245     4.1564     1.0650 H       
  66 H66           10.5982     6.3944    -1.2663 H       
  67 H67           11.4078     5.3755     0.0405 H       
  68 H68           12.1990     3.7372    -1.7270 H       
  69 H69           11.3894     4.7561    -3.0338 H       
  70 H70            8.8611     2.6184    -3.1516 H       
  71 H71            6.8402     3.0779    -4.4813 H       
  72 H72            5.6447     5.2129    -4.2065 H       
  73 H73            6.4697     6.8882    -2.6014 H       
  74 H74            8.4858     6.4252    -1.2657 H       
  75 H75           11.6824     1.4668     4.1216 H       
  76 H76           -1.4850     7.9992     0.9862 H       
  77 H77           -1.2182     8.2813     2.7233 H       
  78 H78           -0.1243     9.1263    -0.6790 H       
  79 H79            1.2490    11.0998    -1.2104 H       
  80 H80            2.2548    12.4249     0.6051 H       
  81 H81            1.8866    11.7769     2.9519 H       
  82 H82            0.5064     9.8082     3.4836 H       
@<TRIPOS>BOND
   1    1    2 1
   2    1    5 1
   3    1    6 am
   4    2    3 1
   5    2    9 1
   6    2   46 1
   7    3    4 1
   8    3   47 1
   9    3   48 1
  10    4    5 1
  11    4   17 1
  12    4   49 1
  13    5   50 1
  14    5   51 1
  15    6    7 2
  16    6    8 1
  17    8   39 1
  18    9   10 1
  19    9   52 1
  20    9   53 1
  21   10   11 1
  22   10   54 1
  23   11   12 ar
  24   11   16 ar
  25   12   13 ar
  26   12   55 1
  27   13   14 ar
  28   13   56 1
  29   14   15 ar
  30   14   57 1
  31   15   16 ar
  32   15   58 1
  33   17   18 1
  34   18   19 1
  35   18   59 1
  36   18   60 1
  37   19   20 am
  38   19   21 2
  39   20   22 1
  40   20   61 1
  41   22   23 1
  42   22   62 1
  43   22   63 1
  44   23   24 1
  45   23   36 1
  46   23   64 1
  47   24   25 am
  48   24   65 1
  49   25   26 2
  50   25   27 1
  51   27   28 1
  52   27   29 1
  53   27   30 1
  54   28   29 1
  55   28   66 1
  56   28   67 1
  57   29   68 1
  58   29   69 1
  59   30   31 ar
  60   30   35 ar
  61   31   32 ar
  62   31   70 1
  63   32   33 ar
  64   32   71 1
  65   33   34 ar
  66   33   72 1
  67   34   35 ar
  68   34   73 1
  69   35   74 1
  70   36   37 2
  71   36   38 1
  72   38   75 1
  73   39   40 1
  74   39   76 1
  75   39   77 1
  76   40   41 ar
  77   40   45 ar
  78   41   42 ar
  79   41   78 1
  80   42   43 ar
  81   42   79 1
  82   43   44 ar
  83   43   80 1
  84   44   45 ar
  85   44   81 1
  86   45   82 1

#	End of record

