#	Name: ASD02508407
#	Creating user name:	WinNT
#	Creation time:	15. 06. 2019 20:24

#	Modifying user name:	WinNT
#	Modification time:	15. 06. 2019 20:24

#	Program:	/corina/corina34_cracker 3.40 0067  02.08.2006

@<TRIPOS>MOLECULE
ASD02508407
  36   38    0    0    0
SMALL
NO_CHARGES


@<TRIPOS>ATOM
   1 Cl1            2.5108    -1.0539     5.9934 Cl      
   2 N2            -0.2073     1.6928     0.3010 N.2     
   3 C3            -0.1699     0.3590     0.4397 C.2     
   4 C4             1.1183    -0.0310     0.4119 C.2     
   5 N5             1.8732     1.1030     0.2519 N.pl3   
   6 C6             1.0094     2.1504     0.1876 C.2     
   7 C7             3.2679     1.1691     0.1707 C.ar    
   8 C8             3.9625     2.0707     0.9696 C.ar    
   9 N9             3.9145     0.3695    -0.6613 N.ar    
  10 C10            5.2289     0.3988    -0.7688 C.ar    
  11 C11            5.9826     1.2726    -0.0101 C.ar    
  12 C12            5.3435     2.1252     0.8793 C.ar    
  13 S13            1.7193    -1.6813     0.5538 S.o2    
  14 O14            1.6666    -2.2411    -0.7512 O.2     
  15 O15            2.9133    -1.6089     1.3208 O.2     
  16 N16            0.6261    -2.5241     1.4687 N.am    
  17 C17            0.3784    -2.1415     2.7905 C.ar    
  18 C18           -0.9258    -2.0766     3.2626 C.ar    
  19 C19           -1.1689    -1.6989     4.5692 C.ar    
  20 C20           -0.1136    -1.3851     5.4080 C.ar    
  21 C21            1.1892    -1.4486     4.9392 C.ar    
  22 C22            1.4368    -1.8315     3.6346 C.ar    
  23 Cl23           3.1104     3.1141     2.0646 Cl      
  24 F24           -0.3538    -1.0160     6.6852 F       
  25 C25            7.4836     1.2958    -0.1420 C.3     
  26 F26            7.8832     0.3478    -1.0901 F       
  27 F27            7.8961     2.5681    -0.5522 F       
  28 F28            8.0651     0.9930     1.0939 F       
  29 H29           -1.0256    -0.2899     0.5542 H       
  30 H30            1.2840     3.1874     0.0630 H       
  31 H31            5.7222    -0.2696    -1.4590 H       
  32 H32            5.9098     2.8179     1.4842 H       
  33 H33            0.1577    -3.2831     1.0875 H       
  34 H34           -1.7499    -2.3210     2.6087 H       
  35 H35           -2.1833    -1.6481     4.9363 H       
  36 H36            2.4520    -1.8813     3.2694 H       
@<TRIPOS>BOND
   1    1   21 1
   2    2    3 1
   3    2    6 2
   4    3    4 2
   5    3   29 1
   6    4    5 1
   7    4   13 1
   8    5    6 1
   9    5    7 1
  10    6   30 1
  11    7    8 ar
  12    7    9 ar
  13    8   23 1
  14    8   12 ar
  15    9   10 ar
  16   10   11 ar
  17   10   31 1
  18   11   12 ar
  19   11   25 1
  20   12   32 1
  21   13   14 2
  22   13   15 2
  23   13   16 am
  24   16   17 1
  25   16   33 1
  26   17   18 ar
  27   17   22 ar
  28   18   19 ar
  29   18   34 1
  30   19   20 ar
  31   19   35 1
  32   20   21 ar
  33   20   24 1
  34   21   22 ar
  35   22   36 1
  36   25   26 1
  37   25   27 1
  38   25   28 1

#	End of record

