#	Name: ASD02038845
#	Creating user name:	WinNT
#	Creation time:	15. 06. 2019 20:17

#	Modifying user name:	WinNT
#	Modification time:	15. 06. 2019 20:17

#	Program:	/corina/corina34_cracker 3.40 0067  02.08.2006

@<TRIPOS>MOLECULE
ASD02038845
  56   59    0    0    0
SMALL
NO_CHARGES


@<TRIPOS>ATOM
   1 C1            -1.2781    -0.8505     0.4670 C.2     
   2 C2            -0.0619    -0.0355     0.3023 C.2     
   3 N3             1.1360    -0.6349     0.1535 N.am    
   4 C4             1.2426    -2.0928     0.2504 C.3     
   5 C5             1.2147    -2.6915    -1.1323 C.ar    
   6 C6             2.3315     0.1714    -0.1051 C.3     
   7 O7            -0.1389     1.1783     0.3006 O.2     
   8 N8            -1.3370    -2.2064     0.5001 N.2     
   9 C9            -2.5768    -2.5701     0.6590 C.2     
  10 N10           -3.3571    -1.4606     0.7336 N.pl3   
  11 C11           -2.5495    -0.3801     0.6200 C.2     
  12 C12            2.3976    -3.0119    -1.7677 C.ar    
  13 C13            2.1176     1.0154    -1.3653 C.3     
  14 C14            3.3393     1.9119    -1.5831 C.3     
  15 O15            3.5393     2.7308    -0.4292 O.3     
  16 C16            3.7912     1.9967     0.7707 C.3     
  17 C17            2.5877     1.1036     1.0831 C.3     
  18 C18            0.0038    -2.9238    -1.7590 C.ar    
  19 C19           -0.0305    -3.4734    -3.0276 C.ar    
  20 C20            1.1475    -3.7940    -3.6762 C.ar    
  21 C21            2.3715    -3.5657    -3.0455 C.ar    
  22 C22            3.6399    -3.9073    -3.7353 C.ar    
  23 C23            3.8067    -5.1660    -4.3094 C.ar    
  24 C24           -4.8111    -1.4375     0.9115 C.3     
  25 F25            1.1138    -4.3313    -4.9153 F       
  26 C26            4.9886    -5.4782    -4.9502 C.ar    
  27 C27            6.0065    -4.5445    -5.0228 C.ar    
  28 C28            5.8463    -3.2935    -4.4546 C.ar    
  29 C29            4.6665    -2.9686    -3.8164 C.ar    
  30 C30            7.2950    -4.8916    -5.7230 C.3     
  31 H31            2.1791    -2.3568     0.7418 H       
  32 H32            0.4057    -2.4805     0.8312 H       
  33 H33            3.1902    -0.4848    -0.2471 H       
  34 H34           -2.9282    -3.5894     0.7213 H       
  35 H35           -2.8542     0.6558     0.6392 H       
  36 H36            3.3418    -2.8331    -1.2749 H       
  37 H37            1.9895     0.3589    -2.2259 H       
  38 H38            1.2288     1.6344    -1.2426 H       
  39 H39            4.2208     1.2918    -1.7459 H       
  40 H40            3.1744     2.5457    -2.4544 H       
  41 H41            4.6786     1.3777     0.6386 H       
  42 H42            3.9519     2.6916     1.5950 H       
  43 H43            1.7084     1.7244     1.2552 H       
  44 H44            2.7957     0.5102     1.9734 H       
  45 H45           -0.9188    -2.6754    -1.2555 H       
  46 H46           -0.9789    -3.6526    -3.5122 H       
  47 H47            3.0128    -5.8960    -4.2527 H       
  48 H48           -5.0466    -1.4119     1.9754 H       
  49 H49           -5.2224    -0.5520     0.4269 H       
  50 H50           -5.2461    -2.3314     0.4645 H       
  51 H51            5.1190    -6.4534    -5.3955 H       
  52 H52            6.6445    -2.5684    -4.5139 H       
  53 H53            4.5425    -1.9916    -3.3731 H       
  54 H54            7.2197    -4.6232    -6.7767 H       
  55 H55            8.1169    -4.3407    -5.2656 H       
  56 H56            7.4805    -5.9619    -5.6330 H       
@<TRIPOS>BOND
   1    1    2 1
   2    1    8 1
   3    1   11 2
   4    2    3 am
   5    2    7 2
   6    3    4 1
   7    3    6 1
   8    4    5 1
   9    4   31 1
  10    4   32 1
  11    5   12 ar
  12    5   18 ar
  13    6   13 1
  14    6   17 1
  15    6   33 1
  16    8    9 2
  17    9   10 1
  18    9   34 1
  19   10   11 1
  20   10   24 1
  21   11   35 1
  22   12   21 ar
  23   12   36 1
  24   13   14 1
  25   13   37 1
  26   13   38 1
  27   14   15 1
  28   14   39 1
  29   14   40 1
  30   15   16 1
  31   16   17 1
  32   16   41 1
  33   16   42 1
  34   17   43 1
  35   17   44 1
  36   18   19 ar
  37   18   45 1
  38   19   20 ar
  39   19   46 1
  40   20   21 ar
  41   20   25 1
  42   21   22 1
  43   22   23 ar
  44   22   29 ar
  45   23   26 ar
  46   23   47 1
  47   24   48 1
  48   24   49 1
  49   24   50 1
  50   26   27 ar
  51   26   51 1
  52   27   28 ar
  53   27   30 1
  54   28   29 ar
  55   28   52 1
  56   29   53 1
  57   30   54 1
  58   30   55 1
  59   30   56 1

#	End of record

