#	Name: ASD01910141
#	Creating user name:	WinNT
#	Creation time:	15. 06. 2019 19:55

#	Modifying user name:	WinNT
#	Modification time:	15. 06. 2019 19:55

#	Program:	/corina/corina34_cracker 3.40 0067  02.08.2006

@<TRIPOS>MOLECULE
ASD01910141
  43   45    0    0    0
SMALL
NO_CHARGES


@<TRIPOS>ATOM
   1 C1             0.0214     1.2983     0.0785 C.ar    
   2 C2             0.0459    -0.0765    -0.0782 C.ar    
   3 C3             1.2499    -0.7409    -0.2336 C.ar    
   4 C4             2.4354    -0.0362    -0.2330 C.ar    
   5 C5             2.4187     1.3525    -0.0752 C.ar    
   6 C6             1.1986     2.0166     0.0808 C.ar    
   7 C7             3.6454     2.0913    -0.0729 C.1     
   8 C8             4.6511     2.6969    -0.0710 C.1     
   9 C9             5.8779     3.4357    -0.0688 C.ar    
  10 N10            5.8489     4.7580     0.0823 N.ar    
  11 C11            6.9512     5.4746     0.0908 C.ar    
  12 C12            8.1983     4.8630    -0.0607 C.ar    
  13 C13            8.2618     3.4708    -0.2219 C.ar    
  14 C14            7.0930     2.7582    -0.2196 C.ar    
  15 C15            9.4333     5.6715    -0.0516 C.2     
  16 O16            9.4670     6.7364    -0.6373 O.2     
  17 N17           10.5234     5.2292     0.6060 N.am    
  18 C18           10.4611     4.0102     1.4238 C.3     
  19 C19           10.9698     4.3345     2.8319 C.3     
  20 C20           12.3650     4.9559     2.7353 C.3     
  21 C21           12.2907     6.2592     1.9365 C.3     
  22 C22           11.7984     5.9536     0.5138 C.3     
  23 C23           12.8908     5.2494     4.1419 C.3     
  24 H24           -0.9223     1.8104     0.1949 H       
  25 H25           -0.8792    -0.6338    -0.0788 H       
  26 H26            1.2612    -1.8139    -0.3555 H       
  27 H27            3.3743    -0.5561    -0.3537 H       
  28 H28            1.1779     3.0895     0.2029 H       
  29 H29            6.8921     6.5457     0.2155 H       
  30 H30            9.2122     2.9718    -0.3414 H       
  31 H31            7.1079     1.6852    -0.3415 H       
  32 H32            9.4304     3.6597     1.4793 H       
  33 H33           11.0881     3.2383     0.9775 H       
  34 H34           10.2901     5.0391     3.3110 H       
  35 H35           11.0194     3.4186     3.4207 H       
  36 H36           13.0383     4.2606     2.2340 H       
  37 H37           11.5985     6.9457     2.4240 H       
  38 H38           13.2805     6.7131     1.8881 H       
  39 H39           12.5361     5.3410    -0.0045 H       
  40 H40           11.6487     6.8866    -0.0294 H       
  41 H41           12.9449     4.3211     4.7106 H       
  42 H42           13.8845     5.6920     4.0733 H       
  43 H43           12.2174     5.9442     4.6438 H       
@<TRIPOS>BOND
   1    1    2 ar
   2    1    6 ar
   3    1   24 1
   4    2    3 ar
   5    2   25 1
   6    3    4 ar
   7    3   26 1
   8    4    5 ar
   9    4   27 1
  10    5    6 ar
  11    5    7 1
  12    6   28 1
  13    7    8 3
  14    8    9 1
  15    9   10 ar
  16    9   14 ar
  17   10   11 ar
  18   11   12 ar
  19   11   29 1
  20   12   13 ar
  21   12   15 1
  22   13   14 ar
  23   13   30 1
  24   14   31 1
  25   15   16 2
  26   15   17 am
  27   17   18 1
  28   17   22 1
  29   18   19 1
  30   18   32 1
  31   18   33 1
  32   19   20 1
  33   19   34 1
  34   19   35 1
  35   20   21 1
  36   20   23 1
  37   20   36 1
  38   21   22 1
  39   21   37 1
  40   21   38 1
  41   22   39 1
  42   22   40 1
  43   23   41 1
  44   23   42 1
  45   23   43 1

#	End of record

