#	Name: ASD03082155
#	Creating user name:	WinNT
#	Creation time:	15. 06. 2019 20:27

#	Modifying user name:	WinNT
#	Modification time:	15. 06. 2019 20:27

#	Program:	/corina/corina34_cracker 3.40 0067  02.08.2006

@<TRIPOS>MOLECULE
ASD03082155
  47   49    0    0    0
SMALL
NO_CHARGES


@<TRIPOS>ATOM
   1 C1            -0.2864     1.9009     1.3870 C.ar    
   2 C2            -0.5483     0.5371     1.3825 C.ar    
   3 C3            -1.7830     0.0695     1.7899 C.ar    
   4 C4            -2.7598     0.9588     2.2021 C.ar    
   5 C5            -2.5016     2.3217     2.2077 C.ar    
   6 C6            -1.2651     2.7929     1.8062 C.ar    
   7 F7            -3.4564     3.1884     2.6105 F       
   8 F8            -3.9666     0.4992     2.5991 F       
   9 N9             0.9633     2.3752     0.9753 N.pl3   
  10 C10            1.0653     3.6156     0.3427 C.2     
  11 N11            0.0396     4.3909    -0.0105 N.2     
  12 N12            2.1876     4.2093     0.0050 N.2     
  13 N13            1.8399     5.4274    -0.6010 N.pl3   
  14 C14            0.4893     5.4895    -0.5841 C.2     
  15 C15            2.7583     6.4330    -1.1409 C.3     
  16 C16            2.8543     6.2730    -2.6595 C.3     
  17 O17            3.8365     7.1754    -3.1724 O.3     
  18 O18            1.5859     6.5635    -3.2502 O.3     
  19 C19           -0.3375     6.5942    -1.1159 C.ar    
  20 C20            0.1040     7.9184    -1.0233 C.ar    
  21 C21           -1.5691     6.3290    -1.7236 C.ar    
  22 N22           -2.3070     7.3061    -2.1979 N.ar    
  23 C23           -1.9208     8.5748    -2.1222 C.ar    
  24 C24           -0.7036     8.9178    -1.5353 C.ar    
  25 C25           -2.7916     9.6378    -2.6732 C.2     
  26 N26           -3.9678     9.3155    -3.2469 N.am    
  27 C27           -4.8295    10.3674    -3.7921 C.3     
  28 O28           -2.4459    10.8011    -2.6081 O.2     
  29 C29            4.0866     7.0282    -4.5716 C.3     
  30 H30            0.2130    -0.1579     1.0604 H       
  31 H31           -1.9861    -0.9912     1.7863 H       
  32 H32           -1.0635     3.8539     1.8104 H       
  33 H33            1.7590     1.8424     1.1292 H       
  34 H34            2.3863     7.4296    -0.9034 H       
  35 H35            3.7453     6.2986    -0.6983 H       
  36 H36            3.1409     5.2491    -2.8996 H       
  37 H37            1.2676     7.4601    -3.0773 H       
  38 H38            1.0520     8.1547    -0.5630 H       
  39 H39           -1.9167     5.3097    -1.8040 H       
  40 H40           -0.3969     9.9517    -1.4773 H       
  41 H41           -4.2438     8.3870    -3.2988 H       
  42 H42           -5.7298     9.9184    -4.2116 H       
  43 H43           -5.1055    11.0596    -2.9966 H       
  44 H44           -4.2944    10.9067    -4.5736 H       
  45 H45            4.8433     7.7482    -4.8832 H       
  46 H46            4.4421     6.0176    -4.7729 H       
  47 H47            3.1653     7.2065    -5.1262 H       
@<TRIPOS>BOND
   1    1    2 ar
   2    1    9 1
   3    1    6 ar
   4    2    3 ar
   5    2   30 1
   6    3    4 ar
   7    3   31 1
   8    4    5 ar
   9    4    8 1
  10    5    6 ar
  11    5    7 1
  12    6   32 1
  13    9   10 1
  14    9   33 1
  15   10   11 1
  16   10   12 2
  17   11   14 2
  18   12   13 1
  19   13   14 1
  20   13   15 1
  21   14   19 1
  22   15   16 1
  23   15   34 1
  24   15   35 1
  25   16   17 1
  26   16   18 1
  27   16   36 1
  28   17   29 1
  29   18   37 1
  30   19   20 ar
  31   19   21 ar
  32   20   24 ar
  33   20   38 1
  34   21   22 ar
  35   21   39 1
  36   22   23 ar
  37   23   24 ar
  38   23   25 1
  39   24   40 1
  40   25   26 am
  41   25   28 2
  42   26   27 1
  43   26   41 1
  44   27   42 1
  45   27   43 1
  46   27   44 1
  47   29   45 1
  48   29   46 1
  49   29   47 1

#	End of record

