#	Name: ASD05510005
#	Creating user name:	WinNT
#	Creation time:	15. 06. 2019 21:01

#	Modifying user name:	WinNT
#	Modification time:	15. 06. 2019 21:01

#	Program:	/corina/corina34_cracker 3.40 0067  02.08.2006

@<TRIPOS>MOLECULE
ASD05510005
  31   33    0    0    0
SMALL
NO_CHARGES


@<TRIPOS>ATOM
   1 C1             0.1960     1.6673    -1.2125 C.ar    
   2 C2             0.3103     0.3914    -1.7277 C.ar    
   3 C3             1.5504    -0.2204    -1.7971 C.ar    
   4 C4             2.6830     0.4332    -1.3545 C.ar    
   5 C5             1.3309     2.3343    -0.7645 C.ar    
   6 C6             1.5534     3.6730    -0.1727 C.2     
   7 C7             2.5879     1.7182    -0.8326 C.ar    
   8 N8             3.5504     2.5841    -0.3265 N.am    
   9 C9             3.0043     3.7448     0.0742 C.2     
  10 O10            3.6026     4.6885     0.5573 O.2     
  11 C11            0.6181     4.6322     0.0872 C.2     
  12 C12           -0.8067     4.3306    -0.0785 C.2     
  13 C13           -1.3610     3.3030     0.5955 C.2     
  14 C14           -1.6395     5.1568    -0.9887 C.ar    
  15 C15           -3.1564     6.7359    -2.6083 C.ar    
  16 C16           -2.9628     5.4124    -2.9603 C.ar    
  17 C17           -2.1940     4.6004    -2.1444 C.ar    
  18 C18           -1.8853     6.4972    -0.7014 C.ar    
  19 N19           -2.6244     7.2314    -1.5079 N.ar    
  20 H20           -0.7703     2.1470    -1.1617 H       
  21 H21           -0.5687    -0.1301    -2.0767 H       
  22 H22            1.6324    -1.2187    -2.2010 H       
  23 H23            3.6447    -0.0547    -1.4136 H       
  24 H24            4.4964     2.3771    -0.2704 H       
  25 H25            0.9277     5.6136     0.4151 H       
  26 H26           -2.4108     3.0808     0.4733 H       
  27 H27           -0.7553     2.7021     1.2575 H       
  28 H28           -3.7553     7.3726    -3.2426 H       
  29 H29           -3.4038     5.0177    -3.8637 H       
  30 H30           -2.0266     3.5633    -2.3949 H       
  31 H31           -1.4665     6.9387     0.1909 H       
@<TRIPOS>BOND
   1    1    2 ar
   2    1    5 ar
   3    1   20 1
   4    2    3 ar
   5    2   21 1
   6    3    4 ar
   7    3   22 1
   8    4    7 ar
   9    4   23 1
  10    5    7 ar
  11    5    6 1
  12    6    9 1
  13    6   11 2
  14    7    8 1
  15    8    9 am
  16    8   24 1
  17    9   10 2
  18   11   12 1
  19   11   25 1
  20   12   13 2
  21   12   14 1
  22   13   26 1
  23   13   27 1
  24   14   18 ar
  25   14   17 ar
  26   15   16 ar
  27   15   19 ar
  28   15   28 1
  29   16   17 ar
  30   16   29 1
  31   17   30 1
  32   18   19 ar
  33   18   31 1

#	End of record

