#	Name: ASD00841859
#	Creating user name:	WinNT
#	Creation time:	15. 06. 2019 18:43

#	Modifying user name:	WinNT
#	Modification time:	15. 06. 2019 18:43

#	Program:	/corina/corina34_cracker 3.40 0067  02.08.2006

@<TRIPOS>MOLECULE
ASD00841859
  98  103    0    0    0
SMALL
NO_CHARGES


@<TRIPOS>ATOM
   1 F1            -0.0947    -3.1577     4.7128 F       
   2 C2            -0.0051     1.3862     0.0369 C.ar    
   3 C3             0.0093    -0.0007     0.0190 C.ar    
   4 C4             1.2194    -0.6794    -0.0011 C.ar    
   5 C5             2.4062     0.0272    -0.0032 C.ar    
   6 C6             2.3891     1.4098     0.0152 C.ar    
   7 C7             1.1848     2.0884     0.0348 C.ar    
   8 C8             1.2387    -2.1861    -0.0202 C.3     
   9 C9             0.4941    -2.7108    -1.2293 C.2     
  10 N10            2.6177    -2.6805    -0.0123 N.am    
  11 C11            3.4634    -2.3342    -1.0029 C.2     
  12 N12            4.7590    -2.7005    -0.9417 N.am    
  13 O13            3.0576    -1.6914    -1.9518 O.2     
  14 C14            5.2905    -3.3763     0.2497 C.3     
  15 C15            6.5169    -2.6053     0.7481 C.3     
  16 C16            7.5240    -2.4627    -0.3953 C.3     
  17 C17            6.8889    -1.6715    -1.5411 C.3     
  18 C18            5.6654    -2.4369    -2.0677 C.3     
  19 C19            8.7653    -1.7233     0.1081 C.3     
  20 C20            9.4029    -2.5145     1.2535 C.3     
  21 C21           10.6772    -1.8018     1.7120 C.3     
  22 N22           11.6132    -1.6967     0.5853 N.3     
  23 C23           11.0408    -0.9009    -0.5080 C.3     
  24 C24            9.7774    -1.5867    -1.0328 C.3     
  25 C25           12.9018    -1.1424     1.0214 C.3     
  26 O26            0.7737    -2.5069    -2.3918 O.2     
  27 N27           -0.5343    -3.4452    -0.7729 N.am    
  28 C28            0.4677    -2.7405     1.1558 C.ar    
  29 C29           -0.5784    -3.4829     0.6224 C.ar    
  30 C30            0.6323    -2.6295     2.5183 C.ar    
  31 C31           -0.2527    -3.2636     3.3753 C.ar    
  32 C32           -1.3009    -4.0076     2.8551 C.ar    
  33 C33           -1.4656    -4.1186     1.4878 C.ar    
  34 F34           -2.1650    -4.6266     3.6890 F       
  35 C35           -0.9922    -5.8306    -2.0669 C.ar    
  36 C36            0.1862    -5.9861    -2.7828 C.ar    
  37 C37           -1.6673    -6.9406    -1.5956 C.ar    
  38 C38           -1.1708    -8.2073    -1.8355 C.ar    
  39 C39            0.0075    -8.3681    -2.5510 C.ar    
  40 C40            0.6863    -7.2564    -3.0251 C.ar    
  41 O41            0.4952    -9.6144    -2.7870 O.3     
  42 O42            0.8494    -4.8943    -3.2463 O.3     
  43 C43            2.0558    -5.1291    -3.9753 C.3     
  44 C44           -0.2565   -10.7139    -2.2692 C.3     
  45 C45           13.8882    -1.1641    -0.1480 C.3     
  46 C46           12.7030     0.2991     1.4942 C.3     
  47 O47           -1.1597    -0.6936     0.0215 O.3     
  48 C48           -3.5696    -0.8751     0.0427 C.3     
  49 C49           -2.3669     0.0708     0.0431 C.3     
  50 S50           -1.6245    -4.2164    -1.7522 S.o2    
  51 O51           -2.8043    -4.3911    -0.9797 O.2     
  52 O52           -1.6042    -3.5281    -2.9952 O.2     
  53 H53           -0.9457     1.9168     0.0481 H       
  54 H54            3.3483    -0.5006    -0.0188 H       
  55 H55            3.3182     1.9605     0.0143 H       
  56 H56            1.1741     3.1682     0.0491 H       
  57 H57            2.9222    -3.2571     0.7059 H       
  58 H58            4.5289    -3.3950     1.0294 H       
  59 H59            5.5790    -4.3957    -0.0066 H       
  60 H60            6.2110    -1.6162     1.0890 H       
  61 H61            6.9776    -3.1486     1.5731 H       
  62 H62            7.8107    -3.4519    -0.7522 H       
  63 H63            6.5796    -0.6912    -1.1787 H       
  64 H64            7.6145    -1.5502    -2.3454 H       
  65 H65            5.9872    -3.3785    -2.5128 H       
  66 H66            5.1512    -1.8336    -2.8157 H       
  67 H67            8.4802    -0.7332     0.4638 H       
  68 H68            8.7021    -2.5784     2.0859 H       
  69 H69            9.6514    -3.5181     0.9083 H       
  70 H70           10.4261    -0.8033     2.0698 H       
  71 H71           11.1413    -2.3702     2.5179 H       
  72 H72           10.7880     0.0934    -0.1398 H       
  73 H73           11.7691    -0.8150    -1.3145 H       
  74 H74           10.0317    -2.5757    -1.4139 H       
  75 H75            9.3441    -0.9878    -1.8338 H       
  76 H76           13.2967    -1.7425     1.8411 H       
  77 H77            1.4505    -2.0492     2.9185 H       
  78 H78           -2.2843    -4.6993     1.0891 H       
  79 H79           -2.5844    -6.8175    -1.0386 H       
  80 H80           -1.6998    -9.0731    -1.4655 H       
  81 H81            1.6032    -7.3795    -3.5825 H       
  82 H82            2.7676    -5.6562    -3.3399 H       
  83 H83            1.8368    -5.7341    -4.8551 H       
  84 H84            2.4834    -4.1761    -4.2869 H       
  85 H85            0.2417   -11.6484    -2.5276 H       
  86 H86           -0.3269   -10.6274    -1.1850 H       
  87 H87           -1.2576   -10.7047    -2.7002 H       
  88 H88           14.8443    -0.7527     0.1755 H       
  89 H89           14.0298    -2.1910    -0.4849 H       
  90 H90           13.4932    -0.5640    -0.9677 H       
  91 H91           12.0003     0.3145     2.3273 H       
  92 H92           13.6592     0.7104     1.8178 H       
  93 H93           12.3080     0.8992     0.6745 H       
  94 H94           -3.5462    -1.4921    -0.8555 H       
  95 H95           -3.5288    -1.5149     0.9242 H       
  96 H96           -4.4904    -0.2920     0.0592 H       
  97 H97           -2.3902     0.6878     0.9414 H       
  98 H98           -2.4076     0.7106    -0.8383 H       
@<TRIPOS>BOND
   1    1   31 1
   2    2    3 ar
   3    2    7 ar
   4    2   53 1
   5    3    4 ar
   6    3   47 1
   7    4    5 ar
   8    4    8 1
   9    5    6 ar
  10    5   54 1
  11    6    7 ar
  12    6   55 1
  13    7   56 1
  14    8    9 1
  15    8   10 1
  16    8   28 1
  17    9   26 2
  18    9   27 am
  19   10   11 am
  20   10   57 1
  21   11   12 am
  22   11   13 2
  23   12   14 1
  24   12   18 1
  25   14   15 1
  26   14   58 1
  27   14   59 1
  28   15   16 1
  29   15   60 1
  30   15   61 1
  31   16   17 1
  32   16   19 1
  33   16   62 1
  34   17   18 1
  35   17   63 1
  36   17   64 1
  37   18   65 1
  38   18   66 1
  39   19   20 1
  40   19   24 1
  41   19   67 1
  42   20   21 1
  43   20   68 1
  44   20   69 1
  45   21   22 1
  46   21   70 1
  47   21   71 1
  48   22   23 1
  49   22   25 1
  50   23   24 1
  51   23   72 1
  52   23   73 1
  53   24   74 1
  54   24   75 1
  55   25   45 1
  56   25   46 1
  57   25   76 1
  58   27   50 am
  59   27   29 1
  60   28   29 ar
  61   28   30 ar
  62   29   33 ar
  63   30   31 ar
  64   30   77 1
  65   31   32 ar
  66   32   33 ar
  67   32   34 1
  68   33   78 1
  69   35   36 ar
  70   35   37 ar
  71   35   50 1
  72   36   42 1
  73   36   40 ar
  74   37   38 ar
  75   37   79 1
  76   38   39 ar
  77   38   80 1
  78   39   40 ar
  79   39   41 1
  80   40   81 1
  81   41   44 1
  82   42   43 1
  83   43   82 1
  84   43   83 1
  85   43   84 1
  86   44   85 1
  87   44   86 1
  88   44   87 1
  89   45   88 1
  90   45   89 1
  91   45   90 1
  92   46   91 1
  93   46   92 1
  94   46   93 1
  95   47   49 1
  96   48   49 1
  97   48   94 1
  98   48   95 1
  99   48   96 1
 100   49   97 1
 101   49   98 1
 102   50   51 2
 103   50   52 2

#	End of record

