#	Name: ASD03090636
#	Creating user name:	WinNT
#	Creation time:	15. 06. 2019 20:29

#	Modifying user name:	WinNT
#	Modification time:	15. 06. 2019 20:29

#	Program:	/corina/corina34_cracker 3.40 0067  02.08.2006

@<TRIPOS>MOLECULE
ASD03090636
  39   40    0    0    0
SMALL
NO_CHARGES


@<TRIPOS>ATOM
   1 N1            -0.0162     1.3436     0.0094 N.am    
   2 C2            -0.2131     0.1137    -0.5055 C.2     
   3 O3             0.6759    -0.4341    -1.1284 O.2     
   4 N4            -1.3955    -0.5089    -0.3301 N.am    
   5 S5            -3.0373    -2.6983    -0.7267 S.3     
   6 C6            -1.5987    -1.7779    -0.8614 C.2     
   7 N7            -0.7294    -2.4616    -1.5426 N.2     
   8 N8            -1.0753    -3.6035    -1.9554 N.2     
   9 C9            -2.2754    -3.9883    -1.6578 C.2     
  10 C10           -2.9076    -5.3023    -2.0384 C.3     
  11 C11            1.2509     1.9418    -0.0675 C.ar    
  12 C12            1.3600     3.3275    -0.2185 C.ar    
  13 C13            2.6074     3.9262    -0.2958 C.ar    
  14 C14            3.7544     3.1544    -0.2233 C.ar    
  15 C15            3.6514     1.7609    -0.0710 C.ar    
  16 C16            2.3858     1.1622     0.0117 C.ar    
  17 O17            4.9750     3.7416    -0.2995 O.3     
  18 C18            5.0030     5.1619    -0.4544 C.3     
  19 O19            0.2391     4.0897    -0.2902 O.3     
  20 C20            0.4214     5.4986    -0.4444 C.3     
  21 C21            4.8607     0.9381     0.0064 C.2     
  22 O22            5.9545     1.4592    -0.0610 O.2     
  23 C23            4.7466    -0.5557     0.1696 C.3     
  24 H24           -0.7513     1.8168     0.4297 H       
  25 H25           -2.1048    -0.0719     0.1668 H       
  26 H26           -3.4106    -5.1985    -2.9998 H       
  27 H27           -2.1361    -6.0686    -2.1129 H       
  28 H28           -3.6334    -5.5901    -1.2779 H       
  29 H29            2.6849     4.9970    -0.4131 H       
  30 H30            2.3000     0.0925     0.1331 H       
  31 H31            4.4875     5.4373    -1.3745 H       
  32 H32            4.5053     5.6299     0.3949 H       
  33 H33            6.0376     5.5019    -0.5018 H       
  34 H34           -0.5515     5.9882    -0.4881 H       
  35 H35            0.9859     5.8869     0.4033 H       
  36 H36            0.9688     5.6954    -1.3662 H       
  37 H37            4.7090    -1.0267    -0.8126 H       
  38 H38            5.6114    -0.9284     0.7184 H       
  39 H39            3.8367    -0.7925     0.7211 H       
@<TRIPOS>BOND
   1    1    2 am
   2    1   11 1
   3    1   24 1
   4    2    3 2
   5    2    4 am
   6    4    6 1
   7    4   25 1
   8    5    6 1
   9    5    9 1
  10    6    7 2
  11    7    8 1
  12    8    9 2
  13    9   10 1
  14   10   26 1
  15   10   27 1
  16   10   28 1
  17   11   12 ar
  18   11   16 ar
  19   12   13 ar
  20   12   19 1
  21   13   14 ar
  22   13   29 1
  23   14   15 ar
  24   14   17 1
  25   15   16 ar
  26   15   21 1
  27   16   30 1
  28   17   18 1
  29   18   31 1
  30   18   32 1
  31   18   33 1
  32   19   20 1
  33   20   34 1
  34   20   35 1
  35   20   36 1
  36   21   22 2
  37   21   23 1
  38   23   37 1
  39   23   38 1
  40   23   39 1

#	End of record

