#	Name: ASD03430129
#	Creating user name:	WinNT
#	Creation time:	15. 06. 2019 20:40

#	Modifying user name:	WinNT
#	Modification time:	15. 06. 2019 20:40

#	Program:	/corina/corina34_cracker 3.40 0067  02.08.2006

@<TRIPOS>MOLECULE
ASD03430129
  69   76    0    0    0
SMALL
NO_CHARGES


@<TRIPOS>ATOM
   1 C1             2.5075     0.8391    -2.1158 C.ar    
   2 C2             2.0908    -0.4320    -1.7873 C.ar    
   3 C3             2.8757    -1.2308    -0.9826 C.ar    
   4 C4             4.0880    -0.7566    -0.4879 C.ar    
   5 C5             4.5050     0.5240    -0.8311 C.ar    
   6 C6             3.7216     1.3291    -1.6492 C.ar    
   7 O7             4.6910    -1.6843     0.3088 O.3     
   8 C8             2.7234    -2.6379    -0.4721 C.3     
   9 C9             4.1308    -2.9827     0.0352 C.3     
  10 C10            0.7666    -3.6793     0.1631 C.ar    
  11 C11            1.6952    -2.7472     0.6139 C.ar    
  12 C12            2.2709    -3.5867    -1.5450 C.2     
  13 N13            1.1304    -4.1512    -1.1008 N.am    
  14 O14            2.8231    -3.8022    -2.6032 O.2     
  15 C15            1.5388    -2.1400     1.8521 C.ar    
  16 C16            0.4434    -2.4672     2.6515 C.ar    
  17 C17           -0.4781    -3.3929     2.2050 C.ar    
  18 C18           -0.3223    -3.9958     0.9729 C.ar    
  19 C19            2.5340    -1.1462     2.3243 C.ar    
  20 C20            1.8734     1.9375    -2.9467 C.3     
  21 C21            2.7079     3.1731    -2.5342 C.3     
  22 O22            3.9518     2.5899    -2.1105 O.3     
  23 C23            0.3618    -5.1443    -1.8552 C.3     
  24 C24           -0.6695    -4.4320    -2.7327 C.3     
  25 C25           -1.4838    -5.4686    -3.5309 C.3     
  26 C26           -2.9496    -5.2083    -3.1061 C.3     
  27 C27           -2.8785    -3.7571    -2.5666 C.3     
  28 O28           -1.5951    -3.7053    -1.9072 O.3     
  29 C29            3.2390    -1.3712     3.5055 C.ar    
  30 C30            4.1638    -0.4460     3.9418 C.ar    
  31 C31            4.3930     0.7089     3.2056 C.ar    
  32 C32            3.6921     0.9356     2.0286 C.ar    
  33 C33            2.7699     0.0114     1.5847 C.ar    
  34 O34            5.3043     1.6189     3.6381 O.3     
  35 C35            4.8682     2.6290     4.4355 C.ar    
  36 C36            3.5519     2.6496     4.8739 C.ar    
  37 C37            5.7401     3.6386     4.8177 C.ar    
  38 C38            5.2943     4.6640     5.6288 C.ar    
  39 C39            3.9807     4.6850     6.0599 C.ar    
  40 C40            3.1113     3.6774     5.6849 C.ar    
  41 H41            1.1477    -0.8034    -2.1601 H       
  42 H42            5.4473     0.8973    -0.4580 H       
  43 H43            4.7047    -3.4972    -0.7355 H       
  44 H44            4.0785    -3.5811     0.9447 H       
  45 H45            0.3170    -1.9983     3.6162 H       
  46 H46           -1.3260    -3.6475     2.8236 H       
  47 H47           -1.0501    -4.7182     0.6340 H       
  48 H48            1.9819     1.7321    -4.0117 H       
  49 H49            0.8244     2.0699    -2.6819 H       
  50 H50            2.8625     3.8363    -3.3853 H       
  51 H51            2.2303     3.7044    -1.7110 H       
  52 H52            1.0365    -5.7239    -2.4853 H       
  53 H53           -0.1501    -5.8112    -1.1614 H       
  54 H54           -0.1655    -3.7498    -3.4173 H       
  55 H55           -1.3624    -5.3064    -4.6019 H       
  56 H56           -1.1823    -6.4806    -3.2608 H       
  57 H57           -3.6201    -5.2723    -3.9631 H       
  58 H58           -3.2559    -5.9004    -2.3217 H       
  59 H59           -2.9177    -3.0403    -3.3868 H       
  60 H60           -3.6833    -3.5722    -1.8551 H       
  61 H61            3.0609    -2.2691     4.0786 H       
  62 H62            4.7101    -0.6196     4.8571 H       
  63 H63            3.8721     1.8349     1.4582 H       
  64 H64            2.2251     0.1882     0.6691 H       
  65 H65            2.8723     1.8630     4.5809 H       
  66 H66            6.7663     3.6225     4.4815 H       
  67 H67            5.9726     5.4499     5.9268 H       
  68 H68            3.6343     5.4875     6.6944 H       
  69 H69            2.0856     3.6963     6.0227 H       
@<TRIPOS>BOND
   1    1    2 ar
   2    1    6 ar
   3    1   20 1
   4    2    3 ar
   5    2   41 1
   6    3    4 ar
   7    3    8 1
   8    4    5 ar
   9    4    7 1
  10    5    6 ar
  11    5   42 1
  12    6   22 1
  13    7    9 1
  14    8    9 1
  15    8   11 1
  16    8   12 1
  17    9   43 1
  18    9   44 1
  19   10   11 ar
  20   10   13 1
  21   10   18 ar
  22   11   15 ar
  23   12   13 am
  24   12   14 2
  25   13   23 1
  26   15   16 ar
  27   15   19 1
  28   16   17 ar
  29   16   45 1
  30   17   18 ar
  31   17   46 1
  32   18   47 1
  33   19   29 ar
  34   19   33 ar
  35   20   21 1
  36   20   48 1
  37   20   49 1
  38   21   22 1
  39   21   50 1
  40   21   51 1
  41   23   24 1
  42   23   52 1
  43   23   53 1
  44   24   25 1
  45   24   28 1
  46   24   54 1
  47   25   26 1
  48   25   55 1
  49   25   56 1
  50   26   27 1
  51   26   57 1
  52   26   58 1
  53   27   28 1
  54   27   59 1
  55   27   60 1
  56   29   30 ar
  57   29   61 1
  58   30   31 ar
  59   30   62 1
  60   31   32 ar
  61   31   34 1
  62   32   33 ar
  63   32   63 1
  64   33   64 1
  65   34   35 1
  66   35   36 ar
  67   35   37 ar
  68   36   40 ar
  69   36   65 1
  70   37   38 ar
  71   37   66 1
  72   38   39 ar
  73   38   67 1
  74   39   40 ar
  75   39   68 1
  76   40   69 1

#	End of record

