#	Name: ASD07930618
#	Creating user name:	WinNT
#	Creation time:	15. 06. 2019 21:12

#	Modifying user name:	WinNT
#	Modification time:	15. 06. 2019 21:12

#	Program:	/corina/corina34_cracker 3.40 0067  02.08.2006

@<TRIPOS>MOLECULE
ASD07930618
  42   43    0    0    0
SMALL
NO_CHARGES


@<TRIPOS>ATOM
   1 C1            -0.0349     1.4584     0.0430 C.3     
   2 N2             0.7949    -0.4129    -2.1297 N.2     
   3 N3            -0.8907    -1.7833    -1.2682 N.pl3   
   4 C4            -0.9152    -2.8269    -0.2380 C.3     
   5 C5            -1.2304    -2.1884     1.1218 C.3     
   6 S6             0.0056    -0.8912     1.4438 S.o2    
   7 N7            -0.0146    -0.0065     0.0320 N.am    
   8 C8            -0.0117    -0.7257    -1.1547 C.2     
   9 C9             0.4498    -3.5151    -0.1752 C.3     
  10 C10           -1.9766    -3.8422    -0.5753 C.ar    
  11 C11           -2.8070    -3.6380    -1.6596 C.ar    
  12 C12           -3.7849    -4.5739    -1.9701 C.ar    
  13 C13           -3.9255    -5.7132    -1.1893 C.ar    
  14 C14           -3.0928    -5.9137    -0.1055 C.ar    
  15 C15           -2.1148    -4.9821     0.1989 C.ar    
  16 O16           -0.4583     0.0117     2.4382 O.2     
  17 O17            1.3136    -1.4438     1.5008 O.2     
  18 N18           -4.6282    -4.3685    -3.0689 N.am    
  19 C19           -5.0482    -5.4188    -3.8017 C.2     
  20 O20           -4.6198    -6.5297    -3.5703 O.2     
  21 C21           -6.0500    -5.2129    -4.9085 C.3     
  22 C22           -6.3544    -6.5550    -5.5770 C.3     
  23 F23           -1.3014    -5.1800     1.2593 F       
  24 F24           -6.8815    -7.4391    -4.6294 F       
  25 F25           -7.2845    -6.3639    -6.6045 F       
  26 F26           -5.1757    -7.0893    -6.1083 F       
  27 H27            0.9875     1.8360     0.0400 H       
  28 H28           -0.5588     1.8211    -0.8414 H       
  29 H29           -0.5487     1.8079     0.9385 H       
  30 H30            1.4066     0.3336    -2.0326 H       
  31 H31           -1.4886    -1.8385    -2.0300 H       
  32 H32           -2.2274    -1.7485     1.0989 H       
  33 H33           -1.1803    -2.9460     1.9039 H       
  34 H34            1.2163    -2.7801     0.0708 H       
  35 H35            0.4309    -4.2905     0.5905 H       
  36 H36            0.6748    -3.9648    -1.1423 H       
  37 H37           -2.6962    -2.7509    -2.2656 H       
  38 H38           -4.6856    -6.4420    -1.4289 H       
  39 H39           -3.2019    -6.7998     0.5021 H       
  40 H40           -4.9102    -3.4703    -3.3026 H       
  41 H41           -6.9684    -4.7966    -4.4945 H       
  42 H42           -5.6394    -4.5241    -5.6467 H       
@<TRIPOS>BOND
   1    1    7 1
   2    1   27 1
   3    1   28 1
   4    1   29 1
   5    2    8 2
   6    2   30 1
   7    3    4 1
   8    3    8 1
   9    3   31 1
  10    4    5 1
  11    4    9 1
  12    4   10 1
  13    5    6 1
  14    5   32 1
  15    5   33 1
  16    6    7 am
  17    6   16 2
  18    6   17 2
  19    7    8 1
  20    9   34 1
  21    9   35 1
  22    9   36 1
  23   10   11 ar
  24   10   15 ar
  25   11   12 ar
  26   11   37 1
  27   12   13 ar
  28   12   18 1
  29   13   14 ar
  30   13   38 1
  31   14   15 ar
  32   14   39 1
  33   15   23 1
  34   18   19 am
  35   18   40 1
  36   19   20 2
  37   19   21 1
  38   21   22 1
  39   21   41 1
  40   21   42 1
  41   22   24 1
  42   22   25 1
  43   22   26 1

#	End of record

