#	Name: ASD08070309
#	Creating user name:	WinNT
#	Creation time:	15. 06. 2019 21:14

#	Modifying user name:	WinNT
#	Modification time:	15. 06. 2019 21:14

#	Program:	/corina/corina34_cracker 3.40 0067  02.08.2006

@<TRIPOS>MOLECULE
ASD08070309
  53   55    0    0    0
SMALL
NO_CHARGES


@<TRIPOS>ATOM
   1 O1            -0.0174     1.4354     0.0099 O.3     
   2 C2             0.0021    -0.0041     0.0020 C.3     
   3 O3             1.2438    -0.3266    -0.6516 O.3     
   4 C4             2.0691     0.7335    -0.4082 C.ar    
   5 C5             1.2912     1.8185    -0.0005 C.ar    
   6 C6             1.8951     3.0290     0.3108 C.ar    
   7 C7             3.2633     3.1655     0.2185 C.ar    
   8 C8             4.0471     2.0840    -0.1895 C.ar    
   9 C9             3.4405     0.8645    -0.5026 C.ar    
  10 C10            5.5127     2.2285    -0.2894 C.2     
  11 O11            6.1937     1.2859    -0.6447 O.2     
  12 N12            6.0961     3.4052     0.0132 N.am    
  13 C13            7.8986     4.9980    -0.3075 C.2     
  14 C14            7.5507     3.5485    -0.0859 C.3     
  15 C15            8.2008     3.0603     1.2101 C.3     
  16 C16            7.9521     1.5593     1.3715 C.3     
  17 C17            8.6651     0.8008     0.2503 C.3     
  18 N18            9.1881     5.3704    -0.4297 N.am    
  19 C19            9.5264     6.7794    -0.6450 C.3     
  20 C20           11.0455     6.9292    -0.7486 C.3     
  21 C21           11.6192     9.2166     0.1059 C.ar    
  22 C22           11.3935     8.3786    -0.9701 C.ar    
  23 C23           11.4917     8.8884    -2.2555 C.ar    
  24 C24           11.8147    10.2279    -2.4114 C.ar    
  25 C25           12.0265    11.0046    -1.2883 C.ar    
  26 N26           11.9240    10.4858    -0.0801 N.ar    
  27 O27            7.0182     5.8294    -0.3758 O.2     
  28 C28            8.4931     1.0953     2.7254 C.3     
  29 H29           -0.0068    -0.3927     1.0203 H       
  30 H30           -0.8423    -0.3953    -0.5655 H       
  31 H31            1.2907     3.8666     0.6262 H       
  32 H32            3.7294     4.1091     0.4612 H       
  33 H33            4.0434     0.0258    -0.8180 H       
  34 H34            5.5528     4.1571     0.2967 H       
  35 H35            7.9181     2.9547    -0.9229 H       
  36 H36            9.2737     3.2488     1.1719 H       
  37 H37            7.7682     3.5933     2.0568 H       
  38 H38            6.8815     1.3609     1.3207 H       
  39 H39            8.2797     1.1313    -0.7142 H       
  40 H40            9.7357     0.9992     0.3011 H       
  41 H41            8.4879    -0.2686     0.3652 H       
  42 H42            9.8922     4.7055    -0.3750 H       
  43 H43            9.0632     7.1273    -1.5684 H       
  44 H44            9.1590     7.3733     0.1919 H       
  45 H45           11.5087     6.5814     0.1748 H       
  46 H46           11.4129     6.3353    -1.5855 H       
  47 H47           11.5402     8.8283     1.1105 H       
  48 H48           11.3210     8.2572    -3.1151 H       
  49 H49           11.9000    10.6586    -3.3981 H       
  50 H50           12.2784    12.0488    -1.4012 H       
  51 H51            7.9851     1.6357     3.5241 H       
  52 H52            8.3159     0.0260     2.8403 H       
  53 H53            9.5637     1.2938     2.7761 H       
@<TRIPOS>BOND
   1    1    2 1
   2    1    5 1
   3    2    3 1
   4    2   29 1
   5    2   30 1
   6    3    4 1
   7    4    5 ar
   8    4    9 ar
   9    5    6 ar
  10    6    7 ar
  11    6   31 1
  12    7    8 ar
  13    7   32 1
  14    8    9 ar
  15    8   10 1
  16    9   33 1
  17   10   11 2
  18   10   12 am
  19   12   14 1
  20   12   34 1
  21   13   14 1
  22   13   18 am
  23   13   27 2
  24   14   15 1
  25   14   35 1
  26   15   16 1
  27   15   36 1
  28   15   37 1
  29   16   17 1
  30   16   28 1
  31   16   38 1
  32   17   39 1
  33   17   40 1
  34   17   41 1
  35   18   19 1
  36   18   42 1
  37   19   20 1
  38   19   43 1
  39   19   44 1
  40   20   22 1
  41   20   45 1
  42   20   46 1
  43   21   22 ar
  44   21   26 ar
  45   21   47 1
  46   22   23 ar
  47   23   24 ar
  48   23   48 1
  49   24   25 ar
  50   24   49 1
  51   25   26 ar
  52   25   50 1
  53   28   51 1
  54   28   52 1
  55   28   53 1

#	End of record

