#	Name: ASD00311232
#	Creating user name:	WinNT
#	Creation time:	15. 06. 2019 18:34

#	Modifying user name:	WinNT
#	Modification time:	15. 06. 2019 18:34

#	Program:	/corina/corina34_cracker 3.40 0067  02.08.2006

@<TRIPOS>MOLECULE
ASD00311232
  38   41    0    0    0
SMALL
NO_CHARGES


@<TRIPOS>ATOM
   1 C1            -0.0167     1.3781     0.0096 C.2     
   2 C2             0.0021    -0.0041     0.0020 C.2     
   3 C3             1.2583    -0.6767    -0.0131 C.2     
   4 C4             2.4321     0.0679    -0.0199 C.2     
   5 C5             2.3575     1.4766    -0.0117 C.2     
   6 N6             1.1645     2.0910     0.0022 N.am    
   7 C7            -1.3433    -0.5749     0.0118 C.2     
   8 C8            -2.3224     0.3258     0.0260 C.2     
   9 S9            -1.6795     1.9561     0.0358 S.3     
  10 O10            3.3819     2.1391    -0.0171 O.2     
  11 C11           -3.7911    -0.0116     0.0382 C.3     
  12 C12            5.8248    -1.1323    -1.1029 C.ar    
  13 C13            4.6090    -0.4835    -1.1308 C.ar    
  14 C14            3.7468    -0.6103    -0.0352 C.ar    
  15 C15            4.1633    -1.3963     1.0459 C.ar    
  16 C16            5.3962    -2.0099     0.9900 C.ar    
  17 N17            6.1789    -1.8641    -0.0630 N.ar    
  18 C18           -1.5959    -2.0353     0.0059 C.ar    
  19 C19           -2.2067    -2.6444     1.1013 C.ar    
  20 C20           -2.4393    -4.0045     1.0901 C.ar    
  21 C21           -2.0676    -4.7635    -0.0051 C.ar    
  22 C22           -1.4612    -4.1648    -1.0949 C.ar    
  23 C23           -1.2287    -2.8046    -1.0975 C.ar    
  24 O24            1.3080    -2.0288    -0.0204 O.3     
  25 H25            1.1319     3.0605     0.0073 H       
  26 H26           -4.1354    -0.0985     1.0687 H       
  27 H27           -4.3493     0.7772    -0.4661 H       
  28 H28           -3.9509    -0.9576    -0.4792 H       
  29 H29            6.4949    -1.0443    -1.9453 H       
  30 H30            4.3259     0.1139    -1.9849 H       
  31 H31            3.5283    -1.5197     1.9107 H       
  32 H32            5.7266    -2.6180     1.8192 H       
  33 H33           -2.4970    -2.0528     1.9571 H       
  34 H34           -2.9120    -4.4774     1.9382 H       
  35 H35           -2.2513    -5.8278    -0.0092 H       
  36 H36           -1.1732    -4.7625    -1.9471 H       
  37 H37           -0.7593    -2.3376    -1.9507 H       
  38 H38            2.2053    -2.3893    -0.0306 H       
@<TRIPOS>BOND
   1    1    2 2
   2    1    6 1
   3    1    9 1
   4    2    3 1
   5    2    7 1
   6    3    4 2
   7    3   24 1
   8    4    5 1
   9    4   14 1
  10    5    6 am
  11    5   10 2
  12    6   25 1
  13    7    8 2
  14    7   18 1
  15    8    9 1
  16    8   11 1
  17   11   26 1
  18   11   27 1
  19   11   28 1
  20   12   13 ar
  21   12   17 ar
  22   12   29 1
  23   13   14 ar
  24   13   30 1
  25   14   15 ar
  26   15   16 ar
  27   15   31 1
  28   16   17 ar
  29   16   32 1
  30   18   19 ar
  31   18   23 ar
  32   19   20 ar
  33   19   33 1
  34   20   21 ar
  35   20   34 1
  36   21   22 ar
  37   21   35 1
  38   22   23 ar
  39   22   36 1
  40   23   37 1
  41   24   38 1

#	End of record

