#	Name: ASD01231294
#	Creating user name:	WinNT
#	Creation time:	15. 06. 2019 19:15

#	Modifying user name:	WinNT
#	Modification time:	15. 06. 2019 19:15

#	Program:	/corina/corina34_cracker 3.40 0067  02.08.2006

@<TRIPOS>MOLECULE
ASD01231294
  53   55    0    0    0
SMALL
NO_CHARGES


@<TRIPOS>ATOM
   1 C1            -0.0167     1.3779     0.0096 C.ar    
   2 C2             0.0021    -0.0041     0.0020 C.ar    
   3 C3            -1.1857    -0.7116     0.0095 C.ar    
   4 C4            -2.3919    -0.0369     0.0251 C.ar    
   5 C5            -2.4106     1.3455     0.0336 C.ar    
   6 C6            -1.2232     2.0528     0.0305 C.ar    
   7 C7            -3.7258     2.0812     0.0501 C.3     
   8 F8            -4.1207     2.3009     1.3741 F       
   9 F9            -3.5811     3.3097    -0.6034 F       
  10 F10           -4.6964     1.3159    -0.6052 F       
  11 C11            1.2780     2.1491     0.0014 C.3     
  12 O12            1.6744     2.4001    -1.3484 O.3     
  13 C13           -1.1653    -2.2184     0.0002 C.3     
  14 C14           -1.1444    -2.7292     1.4178 C.ar    
  15 C15           -2.3312    -2.9800     2.0803 C.ar    
  16 C16            0.0611    -2.9527     2.0546 C.ar    
  17 C17            0.0847    -3.4218     3.3570 C.ar    
  18 C18           -1.1026    -3.6670     4.0216 C.ar    
  19 C19           -2.3097    -3.4480     3.3799 C.ar    
  20 C20            1.2539    -3.7419     4.2634 C.3     
  21 C21            0.6643    -4.6175     5.3894 C.3     
  22 C22           -0.8120    -4.1682     5.4201 C.3     
  23 N23            1.3215    -4.3341     6.6677 N.am    
  24 S24            1.5722    -5.5548     7.7584 S.o2    
  25 O25            2.1952    -4.9147     8.8636 O.2     
  26 O26            0.2995    -6.1725     7.8916 O.2     
  27 C27            2.7376    -6.6704     6.9291 C.3     
  28 C28            4.0291    -5.9143     6.6112 C.3     
  29 C29            3.0520    -7.8535     7.8469 C.3     
  30 H30            0.9446    -0.5313    -0.0101 H       
  31 H31           -3.3198    -0.5895     0.0302 H       
  32 H32           -1.2378     3.1327     0.0372 H       
  33 H33            1.1397     3.0969     0.5217 H       
  34 H34            2.0505     1.5677     0.5048 H       
  35 H35            2.5019     2.8938    -1.4300 H       
  36 H36           -2.0553    -2.5907    -0.5071 H       
  37 H37           -0.2756    -2.5665    -0.5245 H       
  38 H38           -3.2744    -2.8099     1.5825 H       
  39 H39            0.9881    -2.7612     1.5346 H       
  40 H40           -3.2375    -3.6395     3.8984 H       
  41 H41            2.0173    -4.2941     3.7154 H       
  42 H42            1.6734    -2.8251     4.6776 H       
  43 H43            0.7422    -5.6754     5.1387 H       
  44 H44           -0.9482    -3.3659     6.1453 H       
  45 H45           -1.4590    -5.0114     5.6617 H       
  46 H46            1.6097    -3.4315     6.8753 H       
  47 H47            2.2938    -7.0367     6.0034 H       
  48 H48            4.7294    -6.5846     6.1129 H       
  49 H49            3.8052    -5.0714     5.9573 H       
  50 H50            4.4730    -5.5480     7.5370 H       
  51 H51            2.1319    -8.3922     8.0734 H       
  52 H52            3.7523    -8.5239     7.3487 H       
  53 H53            3.4958    -7.4872     8.7727 H       
@<TRIPOS>BOND
   1    1    2 ar
   2    1   11 1
   3    1    6 ar
   4    2    3 ar
   5    2   30 1
   6    3    4 ar
   7    3   13 1
   8    4    5 ar
   9    4   31 1
  10    5    6 ar
  11    5    7 1
  12    6   32 1
  13    7    8 1
  14    7    9 1
  15    7   10 1
  16   11   12 1
  17   11   33 1
  18   11   34 1
  19   12   35 1
  20   13   14 1
  21   13   36 1
  22   13   37 1
  23   14   15 ar
  24   14   16 ar
  25   15   19 ar
  26   15   38 1
  27   16   17 ar
  28   16   39 1
  29   17   18 ar
  30   17   20 1
  31   18   19 ar
  32   18   22 1
  33   19   40 1
  34   20   21 1
  35   20   41 1
  36   20   42 1
  37   21   22 1
  38   21   23 1
  39   21   43 1
  40   22   44 1
  41   22   45 1
  42   23   24 am
  43   23   46 1
  44   24   25 2
  45   24   26 2
  46   24   27 1
  47   27   28 1
  48   27   29 1
  49   27   47 1
  50   28   48 1
  51   28   49 1
  52   28   50 1
  53   29   51 1
  54   29   52 1
  55   29   53 1

#	End of record

