#	Name: ASD05730145
#	Creating user name:	WinNT
#	Creation time:	15. 06. 2019 21:02

#	Modifying user name:	WinNT
#	Modification time:	15. 06. 2019 21:02

#	Program:	/corina/corina34_cracker 3.40 0067  02.08.2006

@<TRIPOS>MOLECULE
ASD05730145
  79   83    0    0    0
SMALL
NO_CHARGES


@<TRIPOS>ATOM
   1 N1             1.2127     1.3045     0.6955 N.3     
   2 C2             0.9698    -0.0632     0.5266 C.ar    
   3 C3            -0.2259    -0.6155     0.9664 C.ar    
   4 C4            -0.4658    -1.9652     0.7993 C.ar    
   5 C5             0.4889    -2.7700     0.1920 C.ar    
   6 C6             1.6849    -2.2176    -0.2478 C.ar    
   7 C7             1.9224    -0.8674    -0.0860 C.ar    
   8 N8             0.2459    -4.1391     0.0234 N.pl3   
   9 C9             0.7124    -4.7897    -1.1017 C.ar    
  10 N10            0.5735    -6.1043    -1.1819 N.ar    
  11 C11            1.0096    -6.7655    -2.2483 C.ar    
  12 C12            1.6229    -6.0386    -3.2920 C.ar    
  13 C13            1.7463    -4.6470    -3.1590 C.ar    
  14 N14            1.2793    -4.0730    -2.0664 N.ar    
  15 N15            0.8694    -8.1271    -2.3376 N.am    
  16 C16            1.3124    -8.7970    -3.4185 C.2     
  17 C17            1.9544    -8.0788    -4.5218 C.2     
  18 C18            2.0983    -6.7085    -4.4416 C.2     
  19 C19            0.2301    -8.8617    -1.2432 C.3     
  20 O20            1.1789   -10.0062    -3.4788 O.2     
  21 C21            2.4427    -8.8144    -5.7101 C.ar    
  22 C22            1.3095     1.6502     2.1205 C.3     
  23 C23           -1.0108    -9.5849    -1.7708 C.3     
  24 C24            1.6536     3.1350     2.2603 C.3     
  25 N25            3.3770    -9.7473    -5.5696 N.ar    
  26 C26            1.9133    -8.5260    -6.9690 C.ar    
  27 C27            2.3805    -9.2233    -8.0704 C.ar    
  28 C28            3.3614   -10.1861    -7.8778 C.ar    
  29 C29            3.8376   -10.4243    -6.6019 C.ar    
  30 S30            3.9895   -11.1011    -9.2463 S.o     
  31 C31            5.3854   -10.0881    -9.8084 C.3     
  32 C32            6.0493   -10.7581   -11.0130 C.3     
  33 N33            7.1797    -9.9377   -11.4682 N.3     
  34 O34            4.4802   -12.2883    -8.6388 O.2     
  35 C35            0.1784     2.1091     0.0304 C.3     
  36 C36            0.5225     3.5939     0.1701 C.3     
  37 N37            0.6193     3.9396     1.5952 N.3     
  38 C38            3.2201    -0.2680    -0.5633 C.3     
  39 C39            1.2136    -9.8860    -0.6735 C.3     
  40 Cl40           0.6866    -7.3112    -7.1513 Cl      
  41 C41            8.2449    -9.9018   -10.4572 C.3     
  42 C42            7.6937   -10.4186   -12.7576 C.3     
  43 H43           -0.9682     0.0103     1.4394 H       
  44 H44           -1.3958    -2.3947     1.1413 H       
  45 H45            2.4276    -2.8438    -0.7199 H       
  46 H46           -0.2500    -4.6302     0.6970 H       
  47 H47            2.2096    -4.0577    -3.9365 H       
  48 H48            2.5682    -6.1579    -5.2431 H       
  49 H49           -0.0623    -8.1635    -0.4589 H       
  50 H50            0.3557     1.4505     2.6088 H       
  51 H51            2.0903     1.0504     2.5880 H       
  52 H52           -1.7114    -8.8552    -2.1766 H       
  53 H53           -0.7184   -10.2831    -2.5551 H       
  54 H54           -1.4864   -10.1315    -0.9565 H       
  55 H55            1.6974     3.4002     3.3166 H       
  56 H56            2.6203     3.3295     1.7958 H       
  57 H57            1.9899    -9.0227    -9.0571 H       
  58 H58            4.6011   -11.1728    -6.4497 H       
  59 H59            5.0251    -9.1001   -10.0950 H       
  60 H60            6.1114    -9.9900    -9.0013 H       
  61 H61            6.4096   -11.7461   -10.7264 H       
  62 H62            5.3233   -10.8561   -11.8201 H       
  63 H63            0.1346     1.8438    -1.0260 H       
  64 H64           -0.7883     1.9146     0.4949 H       
  65 H65            1.4763     3.7936    -0.3181 H       
  66 H66           -0.2583     4.1937    -0.2974 H       
  67 H67           -0.2727     3.8330     2.0545 H       
  68 H68            3.1349    -0.0108    -1.6191 H       
  69 H69            3.4389     0.6308     0.0132 H       
  70 H70            4.0251    -0.9906    -0.4291 H       
  71 H71            2.0976    -9.3708    -0.2976 H       
  72 H72            0.7379   -10.4326     0.1408 H       
  73 H73            1.5060   -10.5842    -1.4578 H       
  74 H74            8.6015   -10.9145   -10.2690 H       
  75 H75            9.0693    -9.2878   -10.8197 H       
  76 H76            7.8542    -9.4764    -9.5328 H       
  77 H77            6.9023   -10.3690   -13.5055 H       
  78 H78            8.5298    -9.7937   -13.0713 H       
  79 H79            8.0303   -11.4500   -12.6526 H       
@<TRIPOS>BOND
   1    1    2 1
   2    1   22 1
   3    1   35 1
   4    2    3 ar
   5    2    7 ar
   6    3    4 ar
   7    3   43 1
   8    4    5 ar
   9    4   44 1
  10    5    6 ar
  11    5    8 1
  12    6    7 ar
  13    6   45 1
  14    7   38 1
  15    8    9 1
  16    8   46 1
  17    9   10 ar
  18    9   14 ar
  19   10   11 ar
  20   11   12 ar
  21   11   15 1
  22   12   13 ar
  23   12   18 1
  24   13   14 ar
  25   13   47 1
  26   15   16 am
  27   15   19 1
  28   16   17 1
  29   16   20 2
  30   17   18 2
  31   17   21 1
  32   18   48 1
  33   19   39 1
  34   19   23 1
  35   19   49 1
  36   21   25 ar
  37   21   26 ar
  38   22   24 1
  39   22   50 1
  40   22   51 1
  41   23   52 1
  42   23   53 1
  43   23   54 1
  44   24   37 1
  45   24   55 1
  46   24   56 1
  47   25   29 ar
  48   26   27 ar
  49   26   40 1
  50   27   28 ar
  51   27   57 1
  52   28   29 ar
  53   28   30 1
  54   29   58 1
  55   30   31 1
  56   30   34 2
  57   31   32 1
  58   31   59 1
  59   31   60 1
  60   32   33 1
  61   32   61 1
  62   32   62 1
  63   33   41 1
  64   33   42 1
  65   35   36 1
  66   35   63 1
  67   35   64 1
  68   36   37 1
  69   36   65 1
  70   36   66 1
  71   37   67 1
  72   38   68 1
  73   38   69 1
  74   38   70 1
  75   39   71 1
  76   39   72 1
  77   39   73 1
  78   41   74 1
  79   41   75 1
  80   41   76 1
  81   42   77 1
  82   42   78 1
  83   42   79 1

#	End of record

