#	Name: ASD00170280
#	Creating user name:	WinNT
#	Creation time:	15. 06. 2019 18:31

#	Modifying user name:	WinNT
#	Modification time:	15. 06. 2019 18:31

#	Program:	/corina/corina34_cracker 3.40 0067  02.08.2006

@<TRIPOS>MOLECULE
ASD00170280
  32   34    0    0    0
SMALL
NO_CHARGES


@<TRIPOS>ATOM
   1 C1            -0.0041     1.3784    -0.0084 C.2     
   2 C2             0.0079     0.0055    -0.0013 C.2     
   3 C3            -1.3224    -0.5786     0.0277 C.2     
   4 C4            -2.2861     0.3474     0.0419 C.2     
   5 S5            -1.6020     1.9645     0.0262 S.3     
   6 C6             1.2347    -0.7883    -0.0218 C.2     
   7 C7             1.7828    -1.2721    -1.3108 C.ar    
   8 O8             1.8065    -1.0522     1.0202 O.2     
   9 N9             1.1230     2.1730    -0.0341 N.pl3   
  10 N10            1.1001    -1.0748    -2.4317 N.ar    
  11 C11            1.5512    -1.4883    -3.5963 C.ar    
  12 C12            2.7642    -2.1497    -3.6953 C.ar    
  13 C13            3.5102    -2.3769    -2.5487 C.ar    
  14 C14            3.0134    -1.9254    -1.3367 C.ar    
  15 C15           -1.5944    -2.0745     0.0399 C.3     
  16 C16           -3.0363    -2.3098     0.4952 C.3     
  17 C17           -3.9751    -1.4265    -0.3321 C.3     
  18 C18           -3.7704     0.0357     0.0729 C.3     
  19 H19            2.0027     1.7690     0.0268 H       
  20 H20            1.0359     3.1358    -0.1129 H       
  21 H21            0.9675    -1.3100    -4.4874 H       
  22 H22            3.1254    -2.4854    -4.6561 H       
  23 H23            4.4590    -2.8903    -2.5998 H       
  24 H24            3.5680    -2.0852    -0.4238 H       
  25 H25           -1.4574    -2.4789    -0.9630 H       
  26 H26           -0.9085    -2.5649     0.7307 H       
  27 H27           -3.2983    -3.3576     0.3482 H       
  28 H28           -3.1314    -2.0541     1.5505 H       
  29 H29           -3.7492    -1.5464    -1.3916 H       
  30 H30           -5.0089    -1.7159    -0.1432 H       
  31 H31           -4.1559     0.1933     1.0802 H       
  32 H32           -4.2951     0.6857    -0.6273 H       
@<TRIPOS>BOND
   1    1    2 2
   2    1    9 1
   3    1    5 1
   4    2    3 1
   5    2    6 1
   6    3    4 2
   7    3   15 1
   8    4    5 1
   9    4   18 1
  10    6    7 1
  11    6    8 2
  12    7   10 ar
  13    7   14 ar
  14    9   19 1
  15    9   20 1
  16   10   11 ar
  17   11   12 ar
  18   11   21 1
  19   12   13 ar
  20   12   22 1
  21   13   14 ar
  22   13   23 1
  23   14   24 1
  24   15   16 1
  25   15   25 1
  26   15   26 1
  27   16   17 1
  28   16   27 1
  29   16   28 1
  30   17   18 1
  31   17   29 1
  32   17   30 1
  33   18   31 1
  34   18   32 1

#	End of record

