#	Name: ASD02198139
#	Creating user name:	WinNT
#	Creation time:	15. 06. 2019 20:18

#	Modifying user name:	WinNT
#	Modification time:	15. 06. 2019 20:18

#	Program:	/corina/corina34_cracker 3.40 0067  02.08.2006

@<TRIPOS>MOLECULE
ASD02198139
  52   54    0    0    0
SMALL
NO_CHARGES


@<TRIPOS>ATOM
   1 C1            -0.0166     1.3753     0.0096 C.2     
   2 C2             0.0021    -0.0041     0.0020 C.2     
   3 C3            -1.1878    -0.8008     0.0091 C.1     
   4 S4             1.5675     2.0054    -0.0021 S.3     
   5 C5             2.2772     0.3990    -0.0175 C.2     
   6 C6             1.2824    -0.5520    -0.0132 C.2     
   7 C7             3.6580     0.1249    -0.0322 C.2     
   8 C8             4.6307     1.2349    -0.0350 C.2     
   9 O9             4.0506    -1.0302    -0.0426 O.2     
  10 N10            1.5294    -1.9154    -0.0224 N.pl3   
  11 N11           -1.1593     2.1393     0.0194 N.pl3   
  12 N12           -2.1317    -1.4328     0.0147 N.1     
  13 O13            4.3523     2.5515    -0.0243 O.3     
  14 C14           -1.0630     3.6011     0.0268 C.3     
  15 C15           -2.4689     4.2047     0.0370 C.3     
  16 N16            5.3579     3.2220    -0.0300 N.2     
  17 C17            6.4378     2.4798    -0.0451 C.2     
  18 C18            5.9943     1.1300    -0.0430 C.2     
  19 N19           -2.3723     5.6705     0.0445 N.3     
  20 C20           -3.6861     6.2856    -0.1837 C.3     
  21 C21           -3.5746     7.8037    -0.0251 C.3     
  22 C22           -2.5555     8.3437    -1.0323 C.3     
  23 C23           -1.2086     7.6518    -0.8045 C.3     
  24 C24           -1.3887     6.1382    -0.9405 C.3     
  25 C25            7.8422     2.9540    -0.0568 C.2     
  26 O26            8.7536     2.1520    -0.0709 O.2     
  27 O27            8.1071     4.2742    -0.0516 O.3     
  28 C28            9.5052     4.6660    -0.0637 C.3     
  29 C29            9.6071     6.1926    -0.0557 C.3     
  30 H30            2.4424    -2.2428    -0.0326 H       
  31 H31            0.7893    -2.5424    -0.0187 H       
  32 H32           -2.0294     1.7105     0.0213 H       
  33 H33           -0.5220     3.9251     0.9159 H       
  34 H34           -0.5308     3.9347    -0.8640 H       
  35 H35           -3.0098     3.8808    -0.8521 H       
  36 H36           -3.0011     3.8711     0.9279 H       
  37 H37            6.5936     0.2316    -0.0520 H       
  38 H38           -4.0273     6.0499    -1.1918 H       
  39 H39           -4.4004     5.8962     0.5417 H       
  40 H40           -4.5465     8.2612    -0.2100 H       
  41 H41           -3.2467     8.0407     0.9870 H       
  42 H42           -2.9023     8.1411    -2.0456 H       
  43 H43           -2.4408     9.4187    -0.8936 H       
  44 H44           -0.4902     8.0009    -1.5461 H       
  45 H45           -0.8435     7.8865     0.1954 H       
  46 H46           -0.4344     5.6417    -0.7647 H       
  47 H47           -1.7407     5.9031    -1.9449 H       
  48 H48           10.0029     4.2640     0.8188 H       
  49 H49            9.9845     4.2746    -0.9610 H       
  50 H50           10.6566     6.4867    -0.0647 H       
  51 H51            9.1095     6.5946    -0.9382 H       
  52 H52            9.1278     6.5840     0.8416 H       
@<TRIPOS>BOND
   1    1    2 2
   2    1    4 1
   3    1   11 1
   4    2    3 1
   5    2    6 1
   6    3   12 3
   7    4    5 1
   8    5    6 2
   9    5    7 1
  10    6   10 1
  11    7    8 1
  12    7    9 2
  13    8   13 1
  14    8   18 2
  15   10   30 1
  16   10   31 1
  17   11   14 1
  18   11   32 1
  19   13   16 1
  20   14   15 1
  21   14   33 1
  22   14   34 1
  23   15   19 1
  24   15   35 1
  25   15   36 1
  26   16   17 2
  27   17   18 1
  28   17   25 1
  29   18   37 1
  30   19   20 1
  31   19   24 1
  32   20   21 1
  33   20   38 1
  34   20   39 1
  35   21   22 1
  36   21   40 1
  37   21   41 1
  38   22   23 1
  39   22   42 1
  40   22   43 1
  41   23   24 1
  42   23   44 1
  43   23   45 1
  44   24   46 1
  45   24   47 1
  46   25   26 2
  47   25   27 1
  48   27   28 1
  49   28   29 1
  50   28   48 1
  51   28   49 1
  52   29   50 1
  53   29   51 1
  54   29   52 1

#	End of record

