#	Name: ASD01120343
#	Creating user name:	WinNT
#	Creation time:	15. 06. 2019 18:59

#	Modifying user name:	WinNT
#	Modification time:	15. 06. 2019 18:59

#	Program:	/corina/corina34_cracker 3.40 0067  02.08.2006

@<TRIPOS>MOLECULE
ASD01120343
  43   45    0    0    0
SMALL
NO_CHARGES


@<TRIPOS>ATOM
   1 C1             0.2891     1.1849     0.4488 C.3     
   2 C2             0.2413    -0.3311     0.2478 C.3     
   3 O3            -1.1389    -0.7807     0.2830 O.3     
   4 C4            -1.3569    -2.1014     0.1202 C.2     
   5 O5            -0.4187    -2.8563    -0.0466 O.2     
   6 C6            -2.7279    -2.6280     0.1444 C.2     
   7 N7            -3.8721    -1.8751     0.3253 N.pl3   
   8 C8            -4.9641    -2.7129     0.2882 C.ar    
   9 C9            -4.4839    -4.0201     0.0787 C.ar    
  10 C10           -3.0739    -3.9334    -0.0134 C.2     
  11 C11           -5.3877    -5.0881    -0.0024 C.ar    
  12 C12           -6.7411    -4.8484     0.1238 C.ar    
  13 C13           -7.2103    -3.5505     0.3313 C.ar    
  14 C14           -6.3334    -2.4939     0.4131 C.ar    
  15 N15           -6.8460    -1.1228     0.6334 N.pl3   
  16 O16           -8.0438    -0.9306     0.7421 O.2     
  17 O17           -6.0699    -0.1869     0.7060 O.2     
  18 N18           -7.6474    -5.9120     0.0430 N.pl3   
  19 C19           -8.8517    -5.8587     0.7487 C.ar    
  20 C20           -9.9775    -6.5054     0.2536 C.ar    
  21 C21          -11.1683    -6.4528     0.9520 C.ar    
  22 C22          -11.2433    -5.7576     2.1438 C.ar    
  23 C23          -10.1221    -5.1091     2.6431 C.ar    
  24 C24           -8.9242    -5.1640     1.9488 C.ar    
  25 O25          -10.1978    -4.4254     3.8152 O.3     
  26 C26          -11.4626    -4.4159     4.4801 C.3     
  27 H27            1.3252     1.5224     0.4223 H       
  28 H28           -0.2730     1.6747    -0.3464 H       
  29 H29           -0.1508     1.4376     1.4135 H       
  30 H30            0.6812    -0.5838    -0.7169 H       
  31 H31            0.8034    -0.8209     1.0430 H       
  32 H32           -3.9013    -0.9145     0.4567 H       
  33 H33           -2.3944    -4.7574    -0.1732 H       
  34 H34           -5.0271    -6.0933    -0.1632 H       
  35 H35           -8.2714    -3.3741     0.4283 H       
  36 H36           -7.4391    -6.6862    -0.5031 H       
  37 H37           -9.9217    -7.0492    -0.6779 H       
  38 H38          -12.0424    -6.9558     0.5655 H       
  39 H39          -12.1757    -5.7184     2.6874 H       
  40 H40           -8.0509    -4.6601     2.3359 H       
  41 H41          -11.3850    -3.8367     5.4003 H       
  42 H42          -12.2119    -3.9653     3.8293 H       
  43 H43          -11.7557    -5.4384     4.7181 H       
@<TRIPOS>BOND
   1    1    2 1
   2    1   27 1
   3    1   28 1
   4    1   29 1
   5    2    3 1
   6    2   30 1
   7    2   31 1
   8    3    4 1
   9    4    5 2
  10    4    6 1
  11    6    7 1
  12    6   10 2
  13    7    8 1
  14    7   32 1
  15    8    9 ar
  16    8   14 ar
  17    9   10 1
  18    9   11 ar
  19   10   33 1
  20   11   12 ar
  21   11   34 1
  22   12   13 ar
  23   12   18 1
  24   13   14 ar
  25   13   35 1
  26   14   15 1
  27   15   16 2
  28   15   17 2
  29   18   19 1
  30   18   36 1
  31   19   20 ar
  32   19   24 ar
  33   20   21 ar
  34   20   37 1
  35   21   22 ar
  36   21   38 1
  37   22   23 ar
  38   22   39 1
  39   23   24 ar
  40   23   25 1
  41   24   40 1
  42   25   26 1
  43   26   41 1
  44   26   42 1
  45   26   43 1

#	End of record

