#	Name: ASD03330426
#	Creating user name:	WinNT
#	Creation time:	15. 06. 2019 20:37

#	Modifying user name:	WinNT
#	Modification time:	15. 06. 2019 20:37

#	Program:	/corina/corina34_cracker 3.40 0067  02.08.2006

@<TRIPOS>MOLECULE
ASD03330426
  65   70    0    0    0
SMALL
NO_CHARGES


@<TRIPOS>ATOM
   1 C1             0.3346     1.4372    -0.5865 C.3     
   2 N2             0.4023    -0.0050    -0.3124 N.3     
   3 C3             0.7955    -0.7587    -1.5168 C.3     
   4 C4             2.0248    -0.1053    -2.0934 C.2     
   5 N5             2.4484     1.1455    -1.7487 N.pl3   
   6 C6             1.7496     1.9968    -0.7819 C.3     
   7 C7             2.9028    -0.5879    -3.0070 C.2     
   8 N8             3.8476     0.3594    -3.2095 N.2     
   9 C9             3.5801     1.4025    -2.4555 C.2     
  10 C10            4.3768     2.6465    -2.3878 C.ar    
  11 C11            2.8395    -1.9065    -3.6615 C.2     
  12 O12            2.0111    -2.7229    -3.3058 O.2     
  13 C13            3.7388    -3.5613    -5.2251 C.3     
  14 N14            3.6996    -2.2080    -4.6544 N.am    
  15 C15           -0.8724    -0.4992     0.2251 C.3     
  16 C16            4.6184     3.2577    -1.1568 C.ar    
  17 C17            5.3625     4.4174    -1.0995 C.ar    
  18 C18            5.8706     4.9770    -2.2603 C.ar    
  19 C19            5.6352     4.3774    -3.4851 C.ar    
  20 C20            4.8958     3.2117    -3.5556 C.ar    
  21 F21            4.6661     2.6265    -4.7514 F       
  22 Cl22           6.8061     6.4371    -2.1783 Cl      
  23 C23            5.1779    -4.0837    -5.1550 C.3     
  24 C24            6.1147    -3.0808    -5.8221 C.3     
  25 C25            6.0474    -1.7294    -5.1166 C.3     
  26 C26            4.6149    -1.1891    -5.1865 C.3     
  27 N27            7.5014    -3.5931    -5.8021 N.3     
  28 C28            7.6206    -4.2886    -7.1047 C.3     
  29 N29            6.6651    -3.6336    -8.0071 N.am    
  30 C30            5.7694    -2.9295    -7.2834 C.2     
  31 C31            7.6915    -4.4815    -4.7411 C.ar    
  32 C32            8.1409    -5.7728    -4.9864 C.ar    
  33 C33            8.3283    -6.6484    -3.9351 C.ar    
  34 C34            8.0691    -6.2410    -2.6393 C.ar    
  35 C35            7.6216    -4.9562    -2.3915 C.ar    
  36 C36            7.4371    -4.0738    -3.4378 C.ar    
  37 O37            4.8447    -2.2851    -7.7311 O.2     
  38 H38           -0.2502     1.6070    -1.4906 H       
  39 H39           -0.1425     1.9434     0.2526 H       
  40 H40            1.0184    -1.7915    -1.2488 H       
  41 H41           -0.0127    -0.7331    -2.2477 H       
  42 H42            1.6926     3.0163    -1.1633 H       
  43 H43            2.2830     1.9884     0.1686 H       
  44 H44            3.0833    -4.2182    -4.6533 H       
  45 H45            3.4118    -3.5294    -6.2644 H       
  46 H46           -1.6777    -0.2554    -0.4678 H       
  47 H47           -0.8180    -1.5803     0.3530 H       
  48 H48           -1.0672    -0.0286     1.1888 H       
  49 H49            4.2230     2.8234    -0.2505 H       
  50 H50            5.5493     4.8908    -0.1469 H       
  51 H51            6.0333     4.8188    -4.3869 H       
  52 H52            5.4672    -4.2133    -4.1121 H       
  53 H53            5.2427    -5.0411    -5.6720 H       
  54 H54            6.3403    -1.8489    -4.0735 H       
  55 H55            6.7242    -1.0295    -5.6065 H       
  56 H56            4.3567    -0.9711    -6.2227 H       
  57 H57            4.5374    -0.2806    -4.5893 H       
  58 H58            8.6338    -4.1859    -7.4932 H       
  59 H59            7.3670    -5.3427    -6.9915 H       
  60 H60            6.6762    -3.6968    -8.9750 H       
  61 H61            8.3432    -6.0917    -5.9982 H       
  62 H62            8.6773    -7.6527    -4.1251 H       
  63 H63            8.2161    -6.9279    -1.8189 H       
  64 H64            7.4201    -4.6412    -1.3783 H       
  65 H65            7.0879    -3.0705    -3.2436 H       
@<TRIPOS>BOND
   1    1    2 1
   2    1    6 1
   3    1   38 1
   4    1   39 1
   5    2    3 1
   6    2   15 1
   7    3    4 1
   8    3   40 1
   9    3   41 1
  10    4    5 1
  11    4    7 2
  12    5    6 1
  13    5    9 1
  14    6   42 1
  15    6   43 1
  16    7    8 1
  17    7   11 1
  18    8    9 2
  19    9   10 1
  20   10   16 ar
  21   10   20 ar
  22   11   12 2
  23   11   14 am
  24   13   14 1
  25   13   23 1
  26   13   44 1
  27   13   45 1
  28   14   26 1
  29   15   46 1
  30   15   47 1
  31   15   48 1
  32   16   17 ar
  33   16   49 1
  34   17   18 ar
  35   17   50 1
  36   18   19 ar
  37   18   22 1
  38   19   20 ar
  39   19   51 1
  40   20   21 1
  41   23   24 1
  42   23   52 1
  43   23   53 1
  44   24   25 1
  45   24   27 1
  46   24   30 1
  47   25   26 1
  48   25   54 1
  49   25   55 1
  50   26   56 1
  51   26   57 1
  52   27   28 1
  53   27   31 1
  54   28   29 1
  55   28   58 1
  56   28   59 1
  57   29   30 am
  58   29   60 1
  59   30   37 2
  60   31   32 ar
  61   31   36 ar
  62   32   33 ar
  63   32   61 1
  64   33   34 ar
  65   33   62 1
  66   34   35 ar
  67   34   63 1
  68   35   36 ar
  69   35   64 1
  70   36   65 1

#	End of record

