#	Name: ASD05430154
#	Creating user name:	WinNT
#	Creation time:	15. 06. 2019 20:59

#	Modifying user name:	WinNT
#	Modification time:	15. 06. 2019 20:59

#	Program:	/corina/corina34_cracker 3.40 0067  02.08.2006

@<TRIPOS>MOLECULE
ASD05430154
  60   66    0    0    0
SMALL
NO_CHARGES


@<TRIPOS>ATOM
   1 C1            -0.0027     1.3294     0.0575 C.ar    
   2 C2             0.0203    -0.0145    -0.3180 C.ar    
   3 C3             1.2267    -0.6444    -0.5942 C.ar    
   4 C4             2.4088     0.0555    -0.4992 C.ar    
   5 C5             2.3922     1.4016    -0.1241 C.ar    
   6 C6             1.1707     2.0350     0.1548 C.ar    
   7 O7             4.8683     0.1348     0.2076 O.3     
   8 C8             4.8272     1.4936     0.0673 C.2     
   9 C9             3.6530     2.1535    -0.0208 C.2     
  10 C10            6.0778    -0.4373     0.6967 C.3     
  11 C11            6.9052     0.4961     1.5805 C.3     
  12 N12            7.1269     1.7501     0.8583 N.pl3   
  13 C13            6.1172     2.2130     0.0161 C.2     
  14 N14           -1.1793    -0.7317    -0.4163 N.pl3   
  15 C15           -1.5838    -1.5021    -1.4759 C.2     
  16 C16           -2.7901    -2.0063    -1.1534 C.2     
  17 N17           -3.1179    -1.5594     0.0680 N.2     
  18 C18           -2.1587    -0.7999     0.5226 C.2     
  19 C19           -3.6274    -2.9151    -2.0160 C.3     
  20 C20            8.3516     2.5335     1.0045 C.3     
  21 C21            8.6930     3.1559    -0.3540 C.3     
  22 O22            7.5672     3.8644    -0.8625 O.3     
  23 N23            6.3218     3.2104    -0.7782 N.2     
  24 C24            8.1381     3.6237     2.0228 C.ar    
  25 C25            9.1404     3.9337     2.9231 C.ar    
  26 C26            6.9423     4.3168     2.0523 C.ar    
  27 C27            6.7458     5.3173     2.9852 C.ar    
  28 C28            7.7470     5.6251     3.8907 C.ar    
  29 C29            8.9460     4.9335     3.8571 C.ar    
  30 F30            7.5560     6.6030     4.8031 F       
  31 C31            5.8877    -1.8359     1.3062 C.3     
  32 O32            6.1797    -2.3260    -0.0186 O.3     
  33 C33            6.9080    -1.1377    -0.3904 C.3     
  34 C34            0.4646     3.2995     0.5655 C.3     
  35 C35           -0.8374     2.5187     0.4529 C.3     
  36 H36            1.2378    -1.6848    -0.8837 H       
  37 H37            3.3468    -0.4349    -0.7138 H       
  38 H38            3.6388     3.2334    -0.0153 H       
  39 H39            6.3655     0.6973     2.5059 H       
  40 H40            7.8642     0.0302     1.8074 H       
  41 H41           -1.0397    -1.6715    -2.3933 H       
  42 H42           -2.1488    -0.3025     1.4812 H       
  43 H43           -3.3741    -3.9535    -1.8025 H       
  44 H44           -4.6831    -2.7474    -1.8028 H       
  45 H45           -3.4305    -2.7017    -3.0666 H       
  46 H46            9.1662     1.8846     1.3260 H       
  47 H47            9.5303     3.8437    -0.2364 H       
  48 H48            8.9703     2.3674    -1.0536 H       
  49 H49           10.0756     3.3941     2.8967 H       
  50 H50            6.1616     4.0765     1.3459 H       
  51 H51            5.8118     5.8591     3.0076 H       
  52 H52            9.7275     5.1726     4.5632 H       
  53 H53            6.6398    -2.0991     2.0499 H       
  54 H54            4.8690    -2.0383     1.6370 H       
  55 H55            6.6961    -0.7884    -1.4009 H       
  56 H56            7.9741    -1.1861    -0.1687 H       
  57 H57            0.6987     3.6202     1.5807 H       
  58 H58            0.5514     4.1046    -0.1642 H       
  59 H59           -1.4942     2.8773    -0.3397 H       
  60 H60           -1.3527     2.3898     1.4047 H       
@<TRIPOS>BOND
   1    1    2 ar
   2    1    6 ar
   3    1   35 1
   4    2    3 ar
   5    2   14 1
   6    3    4 ar
   7    3   36 1
   8    4    5 ar
   9    4   37 1
  10    5    6 ar
  11    5    9 1
  12    6   34 1
  13    7    8 1
  14    7   10 1
  15    8    9 2
  16    8   13 1
  17    9   38 1
  18   10   11 1
  19   10   31 1
  20   10   33 1
  21   11   12 1
  22   11   39 1
  23   11   40 1
  24   12   13 1
  25   12   20 1
  26   13   23 2
  27   14   15 1
  28   14   18 1
  29   15   16 2
  30   15   41 1
  31   16   17 1
  32   16   19 1
  33   17   18 2
  34   18   42 1
  35   19   43 1
  36   19   44 1
  37   19   45 1
  38   20   21 1
  39   20   24 1
  40   20   46 1
  41   21   22 1
  42   21   47 1
  43   21   48 1
  44   22   23 1
  45   24   25 ar
  46   24   26 ar
  47   25   29 ar
  48   25   49 1
  49   26   27 ar
  50   26   50 1
  51   27   28 ar
  52   27   51 1
  53   28   29 ar
  54   28   30 1
  55   29   52 1
  56   31   32 1
  57   31   53 1
  58   31   54 1
  59   32   33 1
  60   33   55 1
  61   33   56 1
  62   34   35 1
  63   34   57 1
  64   34   58 1
  65   35   59 1
  66   35   60 1

#	End of record

