#	Name: ASD00170708
#	Creating user name:	WinNT
#	Creation time:	15. 06. 2019 18:32

#	Modifying user name:	WinNT
#	Modification time:	15. 06. 2019 18:32

#	Program:	/corina/corina34_cracker 3.40 0067  02.08.2006

@<TRIPOS>MOLECULE
ASD00170708
  34   37    0    0    0
SMALL
NO_CHARGES


@<TRIPOS>ATOM
   1 C1            -0.0170     1.4709     0.0105 C.2     
   2 C2             0.0027    -0.0041     0.0023 C.ar    
   3 C3             0.8997    -0.6959     0.8226 C.ar    
   4 C4             0.9182    -2.0613     0.8152 C.ar    
   5 C5             0.0396    -2.7683    -0.0132 C.ar    
   6 C6            -0.8578    -2.0758    -0.8338 C.ar    
   7 C7            -0.8796    -0.7104    -0.8216 C.ar    
   8 O8             0.7460     2.0846     0.7299 O.2     
   9 O9            -0.8773     2.1377    -0.7839 O.3     
  10 C10            0.0595    -4.2414    -0.0218 C.2     
  11 C11           -1.0578    -5.0343     0.0834 C.2     
  12 C12           -0.7501    -6.4546     0.0465 C.2     
  13 C13            0.6040    -6.7086    -0.0864 C.2     
  14 S14            1.5098    -5.2114    -0.1749 S.3     
  15 C15           -2.0293    -7.1813     0.1678 C.2     
  16 C16           -3.1052    -6.1785     0.2775 C.ar    
  17 C17           -4.4887    -6.3086     0.4119 C.ar    
  18 C18           -5.2807    -5.1814     0.4946 C.ar    
  19 C19           -4.7143    -3.9183     0.4449 C.ar    
  20 C20           -3.3474    -3.7703     0.3123 C.ar    
  21 C21           -2.5336    -4.8974     0.2280 C.ar    
  22 O22           -2.1708    -8.3911     0.1754 O.2     
  23 N23            1.1608    -7.9626    -0.1467 N.pl3   
  24 H24            1.5781    -0.1502     1.4616 H       
  25 H25            1.6112    -2.5955     1.4484 H       
  26 H26           -1.5358    -2.6211    -1.4735 H       
  27 H27           -1.5754    -0.1759    -1.4514 H       
  28 H28           -0.8533     3.1035    -0.7439 H       
  29 H29           -4.9384    -7.2898     0.4506 H       
  30 H30           -6.3507    -5.2850     0.5984 H       
  31 H31           -5.3452    -3.0442     0.5100 H       
  32 H32           -2.9109    -2.7832     0.2741 H       
  33 H33            0.5939    -8.7480    -0.0954 H       
  34 H34            2.1211    -8.0629    -0.2405 H       
@<TRIPOS>BOND
   1    1    2 1
   2    1    8 2
   3    1    9 1
   4    2    3 ar
   5    2    7 ar
   6    3    4 ar
   7    3   24 1
   8    4    5 ar
   9    4   25 1
  10    5    6 ar
  11    5   10 1
  12    6    7 ar
  13    6   26 1
  14    7   27 1
  15    9   28 1
  16   10   11 2
  17   10   14 1
  18   11   12 1
  19   11   21 1
  20   12   13 2
  21   12   15 1
  22   13   14 1
  23   13   23 1
  24   15   16 1
  25   15   22 2
  26   16   17 ar
  27   16   21 ar
  28   17   18 ar
  29   17   29 1
  30   18   19 ar
  31   18   30 1
  32   19   20 ar
  33   19   31 1
  34   20   21 ar
  35   20   32 1
  36   23   33 1
  37   23   34 1

#	End of record

