#	Name: ASD01814660
#	Creating user name:	WinNT
#	Creation time:	15. 06. 2019 19:32

#	Modifying user name:	WinNT
#	Modification time:	15. 06. 2019 19:32

#	Program:	/corina/corina34_cracker 3.40 0067  02.08.2006

@<TRIPOS>MOLECULE
ASD01814660
  63   67    0    0    0
SMALL
NO_CHARGES


@<TRIPOS>ATOM
   1 C1             1.0105     0.4182     2.9630 C.2     
   2 N2             0.0442     0.4686     3.9347 N.pl3   
   3 N3            -0.7759    -0.6532     3.7752 N.2     
   4 C4            -0.3365    -1.3611     2.7545 C.2     
   5 C5             0.7744    -0.7311     2.2187 C.2     
   6 C6            -0.6116    -2.6145     1.9605 C.3     
   7 N7             0.4034    -2.7072     0.9066 N.am    
   8 C8             1.2756    -1.5370     1.0479 C.3     
   9 C9             0.0299     1.5046     4.8240 C.2     
  10 C10            0.9772     2.4690     4.7281 C.2     
  11 C11            1.9493     2.3832     3.7209 C.2     
  12 N12            1.9390     1.3799     2.8751 N.2     
  13 C13            0.5113    -3.6807    -0.0192 C.2     
  14 C14           -0.3872    -4.8498     0.0314 C.ar    
  15 O15            1.3492    -3.5954    -0.8962 O.2     
  16 C16            0.1315    -6.1442    -0.1117 C.ar    
  17 C17           -0.7223    -7.2358    -0.0626 C.ar    
  18 C18           -2.0772    -7.0469     0.1266 C.ar    
  19 C19           -2.5936    -5.7696     0.2680 C.ar    
  20 C20           -1.7587    -4.6736     0.2279 C.ar    
  21 O21            1.4625    -6.3281    -0.2979 O.3     
  22 C22            0.9857     3.6244     5.6956 C.3     
  23 C23            3.0070     3.4506     3.6060 C.3     
  24 C24           -1.0255     1.5749     5.8974 C.3     
  25 C25            1.9182    -7.6755    -0.4358 C.3     
  26 C26            3.4350    -7.6829    -0.6363 C.3     
  27 N27            4.0915    -7.1726     0.5747 N.3     
  28 C28            3.8795    -8.0794     1.7101 C.3     
  29 C29            5.5225    -6.9413     0.3398 C.3     
  30 C30            6.1419    -6.2761     1.5711 C.3     
  31 C31            5.9455    -7.1836     2.7886 C.3     
  32 C32            4.4498    -7.4481     2.9822 C.3     
  33 H33           -0.5481    -3.4859     2.6122 H       
  34 H34           -1.6042    -2.5581     1.5135 H       
  35 H35            1.2366    -0.9341     0.1406 H       
  36 H36            2.2997    -1.8609     1.2336 H       
  37 H37           -0.3272    -8.2349    -0.1727 H       
  38 H38           -2.7380    -7.9003     0.1642 H       
  39 H39           -3.6546    -5.6319     0.4148 H       
  40 H40           -2.1651    -3.6797     0.3434 H       
  41 H41            1.5958     3.3685     6.5618 H       
  42 H42            1.4010     4.5052     5.2060 H       
  43 H43           -0.0338     3.8351     6.0187 H       
  44 H44            3.8702     3.1733     4.2109 H       
  45 H45            3.3106     3.5505     2.5639 H       
  46 H46            2.6051     4.3999     3.9600 H       
  47 H47           -0.6720     1.0571     6.7890 H       
  48 H48           -1.2285     2.6181     6.1395 H       
  49 H49           -1.9394     1.1005     5.5400 H       
  50 H50            1.6680    -8.2376     0.4639 H       
  51 H51            1.4355    -8.1359    -1.2979 H       
  52 H52            3.7710    -8.7016    -0.8299 H       
  53 H53            3.6925    -7.0481    -1.4841 H       
  54 H54            2.8117    -8.2558     1.8395 H       
  55 H55            4.3832    -9.0266     1.5174 H       
  56 H56            6.0186    -7.8939     0.1536 H       
  57 H57            5.6481    -6.2912    -0.5260 H       
  58 H58            7.2073    -6.1188     1.4025 H       
  59 H59            5.6557    -5.3171     1.7498 H       
  60 H60            6.4645    -8.1283     2.6262 H       
  61 H61            6.3468    -6.6944     3.6761 H       
  62 H62            3.9370    -6.5075     3.1832 H       
  63 H63            4.3063    -8.1282     3.8219 H       
@<TRIPOS>BOND
   1    1    5 2
   2    1   12 1
   3    1    2 1
   4    2    3 1
   5    2    9 1
   6    3    4 2
   7    4    6 1
   8    4    5 1
   9    5    8 1
  10    6    7 1
  11    6   33 1
  12    6   34 1
  13    7    8 1
  14    7   13 am
  15    8   35 1
  16    8   36 1
  17    9   10 2
  18    9   24 1
  19   10   11 1
  20   10   22 1
  21   11   12 2
  22   11   23 1
  23   13   14 1
  24   13   15 2
  25   14   16 ar
  26   14   20 ar
  27   16   17 ar
  28   16   21 1
  29   17   18 ar
  30   17   37 1
  31   18   19 ar
  32   18   38 1
  33   19   20 ar
  34   19   39 1
  35   20   40 1
  36   21   25 1
  37   22   41 1
  38   22   42 1
  39   22   43 1
  40   23   44 1
  41   23   45 1
  42   23   46 1
  43   24   47 1
  44   24   48 1
  45   24   49 1
  46   25   26 1
  47   25   50 1
  48   25   51 1
  49   26   27 1
  50   26   52 1
  51   26   53 1
  52   27   29 1
  53   27   28 1
  54   28   32 1
  55   28   54 1
  56   28   55 1
  57   29   30 1
  58   29   56 1
  59   29   57 1
  60   30   31 1
  61   30   58 1
  62   30   59 1
  63   31   32 1
  64   31   60 1
  65   31   61 1
  66   32   62 1
  67   32   63 1

#	End of record

