#	Name: ASD01811198
#	Creating user name:	WinNT
#	Creation time:	15. 06. 2019 19:26

#	Modifying user name:	WinNT
#	Modification time:	15. 06. 2019 19:26

#	Program:	/corina/corina34_cracker 3.40 0067  02.08.2006

@<TRIPOS>MOLECULE
ASD01811198
  63   67    0    0    0
SMALL
NO_CHARGES


@<TRIPOS>ATOM
   1 C1            -8.0254     2.1673     2.3311 C.1     
   2 C2            -6.8586     2.9690     2.1156 C.ar    
   3 C3            -5.6086     2.5176     2.5438 C.ar    
   4 C4            -4.4887     3.2950     2.3330 C.ar    
   5 C5            -4.6022     4.5197     1.6993 C.ar    
   6 C6            -5.8378     4.9734     1.2728 C.ar    
   7 C7            -6.9649     4.2031     1.4711 C.ar    
   8 N8            -8.9510     1.5313     2.5020 N.1     
   9 N9            -1.9285     7.7947     1.4833 N.am    
  10 C10           -2.4295     7.2920     0.1968 C.3     
  11 C11           -3.6891     6.4578     0.4502 C.3     
  12 C12           -3.3743     5.3637     1.4730 C.3     
  13 C13           -2.9466     6.0063     2.7945 C.3     
  14 C14           -1.6786     6.8354     2.5677 C.3     
  15 F15           -2.3377     4.5582     0.9897 F       
  16 C16           -1.6973     9.1102     1.6634 C.2     
  17 C17           -1.2832     9.6131     2.9908 C.ar    
  18 C18           -2.0168    10.6237     3.6167 C.ar    
  19 C19           -1.6314    11.0942     4.8560 C.ar    
  20 C20           -0.5196    10.5698     5.4854 C.ar    
  21 C21            0.2225     9.5590     4.8712 C.ar    
  22 C22           -0.1637     9.0761     3.6227 C.ar    
  23 O23           -1.8293     9.8832     0.7347 O.2     
  24 N24            2.9308     8.6615     6.9975 N.2     
  25 N25            1.8851     9.3547     6.7188 N.2     
  26 C26            1.4131     8.9991     5.5466 C.2     
  27 N27            2.2344     8.0078     5.0659 N.pl3   
  28 C28            3.1886     7.8234     6.0219 C.2     
  29 O29            4.2134     6.9385     5.9734 O.3     
  30 C30            5.1017     6.9125     7.0924 C.3     
  31 C31           -3.2315    11.2018     2.9374 C.3     
  32 C32           -4.4236    10.2644     3.1397 C.3     
  33 C33           -0.1061    11.0900     6.8380 C.3     
  34 C34            0.2401    12.5763     6.9476 C.3     
  35 C35           -1.0637    12.0481     7.5493 C.3     
  36 H36           -5.5187     1.5621     3.0393 H       
  37 H37           -3.5213     2.9471     2.6638 H       
  38 H38           -5.9193     5.9304     0.7791 H       
  39 H39           -7.9280     4.5562     1.1334 H       
  40 H40           -2.6722     8.1319    -0.4542 H       
  41 H41           -1.6680     6.6702    -0.2740 H       
  42 H42           -4.4796     7.1008     0.8369 H       
  43 H43           -4.0160     5.9998    -0.4834 H       
  44 H44           -3.7442     6.6536     3.1592 H       
  45 H45           -2.7452     5.2270     3.5295 H       
  46 H46           -0.8559     6.1764     2.2902 H       
  47 H47           -1.4260     7.3740     3.4810 H       
  48 H48           -2.2017    11.8761     5.3353 H       
  49 H49            0.4045     8.2916     3.1451 H       
  50 H50            2.1523     7.5372     4.2217 H       
  51 H51            5.5656     7.8917     7.2109 H       
  52 H52            4.5425     6.6639     7.9944 H       
  53 H53            5.8744     6.1621     6.9256 H       
  54 H54           -3.4589    12.1770     3.3680 H       
  55 H55           -3.0332    11.3127     1.8713 H       
  56 H56           -4.6218    10.1536     4.2058 H       
  57 H57           -5.3021    10.6826     2.6484 H       
  58 H58           -4.1962     9.2893     2.7091 H       
  59 H59            0.4614    10.3942     7.4559 H       
  60 H60            1.0351    12.8583     7.6379 H       
  61 H61            0.1688    13.1779     6.0414 H       
  62 H62           -1.9927    12.3022     7.0390 H       
  63 H63           -1.1264    11.9827     8.6355 H       
@<TRIPOS>BOND
   1    1    2 1
   2    1    8 3
   3    2    3 ar
   4    2    7 ar
   5    3    4 ar
   6    3   36 1
   7    4    5 ar
   8    4   37 1
   9    5    6 ar
  10    5   12 1
  11    6    7 ar
  12    6   38 1
  13    7   39 1
  14    9   10 1
  15    9   14 1
  16    9   16 am
  17   10   11 1
  18   10   40 1
  19   10   41 1
  20   11   12 1
  21   11   42 1
  22   11   43 1
  23   12   13 1
  24   12   15 1
  25   13   14 1
  26   13   44 1
  27   13   45 1
  28   14   46 1
  29   14   47 1
  30   16   17 1
  31   16   23 2
  32   17   18 ar
  33   17   22 ar
  34   18   19 ar
  35   18   31 1
  36   19   20 ar
  37   19   48 1
  38   20   21 ar
  39   20   33 1
  40   21   22 ar
  41   21   26 1
  42   22   49 1
  43   24   25 1
  44   24   28 2
  45   25   26 2
  46   26   27 1
  47   27   28 1
  48   27   50 1
  49   28   29 1
  50   29   30 1
  51   30   51 1
  52   30   52 1
  53   30   53 1
  54   31   32 1
  55   31   54 1
  56   31   55 1
  57   32   56 1
  58   32   57 1
  59   32   58 1
  60   33   34 1
  61   33   35 1
  62   33   59 1
  63   34   35 1
  64   34   60 1
  65   34   61 1
  66   35   62 1
  67   35   63 1

#	End of record

