#	Name: ASD00110051
#	Creating user name:	WinNT
#	Creation time:	15. 06. 2019 18:30

#	Modifying user name:	WinNT
#	Modification time:	15. 06. 2019 18:30

#	Program:	/corina/corina34_cracker 3.40 0067  02.08.2006

@<TRIPOS>MOLECULE
ASD00110051
  42   43    0    0    0
SMALL
NO_CHARGES


@<TRIPOS>ATOM
   1 N1            -0.0178     1.4642     0.0101 N.3     
   2 C2             0.0021    -0.0041     0.0020 C.3     
   3 C3             0.7039    -0.5130     1.2631 C.3     
   4 C4             2.1331     0.0352     1.3025 C.3     
   5 C5             2.0858     1.5651     1.2611 C.3     
   6 C6             1.3439     2.0138     0.0000 C.3     
   7 C7            -1.4116    -0.5252    -0.0309 C.2     
   8 O8            -2.3294     0.1890     0.3132 O.2     
   9 N9            -1.6559    -1.7851    -0.4426 N.am    
  10 C10            2.8099    -0.4136     2.5720 C.ar    
  11 C11            3.9579    -1.1810     2.5091 C.ar    
  12 C12            4.5787    -1.5927     3.6736 C.ar    
  13 C13            4.0517    -1.2366     4.9009 C.ar    
  14 C14            2.9042    -0.4684     4.9638 C.ar    
  15 C15            2.2858    -0.0531     3.7993 C.ar    
  16 C16           -3.0301    -2.2917    -0.4746 C.3     
  17 C17           -3.0293    -3.7371    -0.9764 C.3     
  18 C18           -4.4645    -4.2662    -1.0098 C.3     
  19 O19           -4.4538    -5.6500    -1.3664 O.3     
  20 O20           -2.4735    -3.7842    -2.2921 O.3     
  21 H21           -0.5582     1.8228    -0.7629 H       
  22 H22            0.5390    -0.3552    -0.8792 H       
  23 H23            0.1597    -0.1738     2.1445 H       
  24 H24            0.7324    -1.6025     1.2493 H       
  25 H25            2.6892    -0.3354     0.4414 H       
  26 H26            1.5633     1.9370     2.1425 H       
  27 H27            3.1015     1.9603     1.2458 H       
  28 H28            1.8745     1.6533    -0.8812 H       
  29 H29            1.2960     3.1025    -0.0252 H       
  30 H30           -0.9218    -2.3564    -0.7178 H       
  31 H31            4.3696    -1.4592     1.5502 H       
  32 H32            5.4752    -2.1929     3.6244 H       
  33 H33            4.5363    -1.5589     5.8107 H       
  34 H34            2.4923    -0.1905     5.9227 H       
  35 H35            1.3914     0.5502     3.8484 H       
  36 H36           -3.4541    -2.2558     0.5289 H       
  37 H37           -3.6293    -1.6749    -1.1444 H       
  38 H38           -2.4301    -4.3539    -0.3066 H       
  39 H39           -4.9183    -4.1480    -0.0259 H       
  40 H40           -5.0413    -3.7058    -1.7456 H       
  41 H41           -5.3322    -6.0524    -1.4071 H       
  42 H42           -2.9570    -3.2566    -2.9424 H       
@<TRIPOS>BOND
   1    1    2 1
   2    1    6 1
   3    1   21 1
   4    2    3 1
   5    2    7 1
   6    2   22 1
   7    3    4 1
   8    3   23 1
   9    3   24 1
  10    4    5 1
  11    4   10 1
  12    4   25 1
  13    5    6 1
  14    5   26 1
  15    5   27 1
  16    6   28 1
  17    6   29 1
  18    7    8 2
  19    7    9 am
  20    9   16 1
  21    9   30 1
  22   10   11 ar
  23   10   15 ar
  24   11   12 ar
  25   11   31 1
  26   12   13 ar
  27   12   32 1
  28   13   14 ar
  29   13   33 1
  30   14   15 ar
  31   14   34 1
  32   15   35 1
  33   16   17 1
  34   16   36 1
  35   16   37 1
  36   17   18 1
  37   17   20 1
  38   17   38 1
  39   18   19 1
  40   18   39 1
  41   18   40 1
  42   19   41 1
  43   20   42 1

#	End of record

