#	Name: ASD02038909
#	Creating user name:	WinNT
#	Creation time:	15. 06. 2019 20:17

#	Modifying user name:	WinNT
#	Modification time:	15. 06. 2019 20:17

#	Program:	/corina/corina34_cracker 3.40 0067  02.08.2006

@<TRIPOS>MOLECULE
ASD02038909
 100  102    0    0    0
SMALL
NO_CHARGES


@<TRIPOS>ATOM
   1 C1            -3.0590     0.5124     1.7592 C.2     
   2 C2            -4.5006     0.5930     1.3276 C.3     
   3 C3            -5.3882     0.8178     2.5535 C.3     
   4 C4            -6.8587     0.7753     2.1331 C.3     
   5 O5            -2.4754    -0.5449     1.7219 O.2     
   6 O6            -2.4216     1.6163     2.1799 O.3     
   7 C7            -4.8633    -0.7472    -0.6747 C.2     
   8 O8            -4.6093     0.2325    -1.3431 O.2     
   9 N9            -4.8842    -0.6586     0.6700 N.am    
  10 N10           -4.5858    -3.1657    -0.5590 N.am    
  11 C11           -5.1554    -2.0635    -1.3478 C.3     
  12 C12           -6.6803    -2.2903    -1.4175 C.3     
  13 C13           -6.9532    -3.1979    -0.1891 C.3     
  14 C14           -5.6761    -4.0742    -0.1600 C.3     
  15 C15           -4.5600    -2.0704    -2.7572 C.3     
  16 C16           -4.7922    -3.4164    -3.3940 C.ar    
  17 C17           -5.8912    -3.6153    -4.2086 C.ar    
  18 C18           -6.1042    -4.8500    -4.7926 C.ar    
  19 C19           -5.2180    -5.8856    -4.5625 C.ar    
  20 C20           -4.1185    -5.6864    -3.7486 C.ar    
  21 C21           -3.9032    -4.4505    -3.1680 C.ar    
  22 C22           -3.2820    -3.3226    -0.2557 C.2     
  23 O23           -2.4744    -2.4859    -0.5999 O.2     
  24 N24           -1.3600    -4.6214     0.4918 N.am    
  25 C25           -2.8277    -4.5378     0.5111 C.3     
  26 C26           -3.2604    -4.4188     1.9876 C.3     
  27 C27           -1.9843    -3.8726     2.6808 C.3     
  28 C28           -0.8661    -4.5859     1.8804 C.3     
  29 C29           -0.5933    -4.7201    -0.6123 C.2     
  30 C30            0.9085    -4.6876    -0.4921 C.3     
  31 C31            1.3719    -3.2455    -0.2763 C.3     
  32 C32            2.9011    -3.1976    -0.2641 C.3     
  33 O33           -1.1121    -4.8349    -1.7025 O.2     
  34 N34            1.5082    -5.2146    -1.7205 N.am    
  35 C35            2.7112    -5.8206    -1.6769 C.2     
  36 O36            3.2547    -6.0160    -0.6078 O.2     
  37 O37            3.3108    -6.2095    -2.8180 O.3     
  38 C38            4.5455    -6.9629    -2.6902 C.3     
  39 C39            4.2934    -8.2162    -1.8495 C.3     
  40 C40            5.0396    -7.3716    -4.0793 C.3     
  41 C41            5.6042    -6.0950    -2.0071 C.3     
  42 O42            0.8700    -2.4098    -1.3524 O.3     
  43 C43            0.0003    -1.4434    -1.0185 C.2     
  44 O44           -0.3524    -1.3186     0.1303 O.2     
  45 C45           -0.5363    -0.5141    -2.0766 C.3     
  46 O46           -5.1343    -0.2240     3.5324 O.3     
  47 C47           -5.3016     0.0998     4.8243 C.2     
  48 O48           -5.6487     1.2169     5.1270 O.2     
  49 C49           -5.0565    -0.9298     5.8971 C.3     
  50 C50           -1.0324     1.4654     2.5744 C.3     
  51 H51           -4.6256     1.4224     0.6315 H       
  52 H52           -5.1634     1.7904     2.9913 H       
  53 H53           -7.4910     0.9354     3.0064 H       
  54 H54           -7.0492     1.5574     1.3982 H       
  55 H55           -7.0834    -0.1973     1.6953 H       
  56 H56           -5.1532    -1.4236     1.2023 H       
  57 H57           -7.2154    -1.3452    -1.3252 H       
  58 H58           -6.9525    -2.8001    -2.3417 H       
  59 H59           -7.0417    -2.6061     0.7220 H       
  60 H60           -7.8426    -3.8085    -0.3443 H       
  61 H61           -5.7639    -4.8963    -0.8704 H       
  62 H62           -5.5018    -4.4575     0.8454 H       
  63 H63           -5.0388    -1.2970    -3.3577 H       
  64 H64           -3.4891    -1.8753    -2.7002 H       
  65 H65           -6.5836    -2.8062    -4.3884 H       
  66 H66           -6.9632    -5.0056    -5.4285 H       
  67 H67           -5.3848    -6.8504    -5.0182 H       
  68 H68           -3.4263    -6.4957    -3.5685 H       
  69 H69           -3.0422    -4.2939    -2.5351 H       
  70 H70           -3.2561    -5.4382     0.0707 H       
  71 H71           -4.0868    -3.7157     2.0918 H       
  72 H72           -3.5302    -5.3951     2.3903 H       
  73 H73           -1.9132    -2.7904     2.5718 H       
  74 H74           -1.9569    -4.1606     3.7317 H       
  75 H75           -0.7174    -5.5982     2.2561 H       
  76 H76            0.0628    -4.0186     1.9383 H       
  77 H77            1.2185    -5.2995     0.3550 H       
  78 H78            0.9893    -2.8797     0.6765 H       
  79 H79            3.2806    -3.4556    -1.2528 H       
  80 H80            3.2310    -2.1932     0.0011 H       
  81 H81            3.2811    -3.9100     0.4682 H       
  82 H82            1.0394    -5.1273    -2.5652 H       
  83 H83            3.5391    -8.8345    -2.3361 H       
  84 H84            5.2203    -8.7818    -1.7536 H       
  85 H85            3.9414    -7.9251    -0.8598 H       
  86 H86            5.2192    -6.4787    -4.6783 H       
  87 H87            5.9665    -7.9372    -3.9834 H       
  88 H88            4.2854    -7.9899    -4.5660 H       
  89 H89            5.2203    -5.7384    -1.0513 H       
  90 H90            6.5050    -6.6854    -1.8394 H       
  91 H91            5.8417    -5.2429    -2.6440 H       
  92 H92           -1.3964    -0.9748    -2.5625 H       
  93 H93           -0.8399     0.4254    -1.6150 H       
  94 H94            0.2393    -0.3209    -2.8177 H       
  95 H95           -4.0133    -0.8870     6.2102 H       
  96 H96           -5.7011    -0.7246     6.7517 H       
  97 H97           -5.2778    -1.9226     5.5052 H       
  98 H98           -0.9639     0.7555     3.3987 H       
  99 H99           -0.4524     1.0969     1.7283 H       
 100 H100          -0.6381     2.4306     2.8924 H       
@<TRIPOS>BOND
   1    1    5 2
   2    1    6 1
   3    1    2 1
   4    2    3 1
   5    2    9 1
   6    2   51 1
   7    3    4 1
   8    3   46 1
   9    3   52 1
  10    4   53 1
  11    4   54 1
  12    4   55 1
  13    6   50 1
  14    7    8 2
  15    7    9 am
  16    7   11 1
  17    9   56 1
  18   10   11 1
  19   10   14 1
  20   10   22 am
  21   11   12 1
  22   11   15 1
  23   12   13 1
  24   12   57 1
  25   12   58 1
  26   13   14 1
  27   13   59 1
  28   13   60 1
  29   14   61 1
  30   14   62 1
  31   15   16 1
  32   15   63 1
  33   15   64 1
  34   16   17 ar
  35   16   21 ar
  36   17   18 ar
  37   17   65 1
  38   18   19 ar
  39   18   66 1
  40   19   20 ar
  41   19   67 1
  42   20   21 ar
  43   20   68 1
  44   21   69 1
  45   22   23 2
  46   22   25 1
  47   24   25 1
  48   24   28 1
  49   24   29 am
  50   25   26 1
  51   25   70 1
  52   26   27 1
  53   26   71 1
  54   26   72 1
  55   27   28 1
  56   27   73 1
  57   27   74 1
  58   28   75 1
  59   28   76 1
  60   29   33 2
  61   29   30 1
  62   30   31 1
  63   30   34 1
  64   30   77 1
  65   31   32 1
  66   31   42 1
  67   31   78 1
  68   32   79 1
  69   32   80 1
  70   32   81 1
  71   34   35 am
  72   34   82 1
  73   35   36 2
  74   35   37 1
  75   37   38 1
  76   38   39 1
  77   38   41 1
  78   38   40 1
  79   39   83 1
  80   39   84 1
  81   39   85 1
  82   40   86 1
  83   40   87 1
  84   40   88 1
  85   41   89 1
  86   41   90 1
  87   41   91 1
  88   42   43 1
  89   43   44 2
  90   43   45 1
  91   45   92 1
  92   45   93 1
  93   45   94 1
  94   46   47 1
  95   47   48 2
  96   47   49 1
  97   49   95 1
  98   49   96 1
  99   49   97 1
 100   50   98 1
 101   50   99 1
 102   50  100 1

#	End of record

