#	Name: ASD04882551
#	Creating user name:	WinNT
#	Creation time:	15. 06. 2019 20:55

#	Modifying user name:	WinNT
#	Modification time:	15. 06. 2019 20:55

#	Program:	/corina/corina34_cracker 3.40 0067  02.08.2006

@<TRIPOS>MOLECULE
ASD04882551
  85   90    0    0    0
SMALL
NO_CHARGES


@<TRIPOS>ATOM
   1 C1            -0.0215     1.4013    -0.0094 C.ar    
   2 C2            -0.0117     0.0037    -0.0051 C.ar    
   3 C3            -1.2095    -0.7018    -0.0165 C.ar    
   4 C4            -2.4098    -0.0266    -0.0315 C.ar    
   5 C5            -2.4268     1.3710    -0.0354 C.ar    
   6 C6            -1.2240     2.0827    -0.0192 C.ar    
   7 N7             1.1996    -0.6831     0.0100 N.3     
   8 C8             1.3065    -1.5360     1.2020 C.3     
   9 C9             1.3723    -1.4734    -1.2168 C.3     
  10 C10            2.7461    -2.1477    -1.1969 C.3     
  11 N11            2.8530    -3.0007    -0.0050 N.3     
  12 C12            2.6803    -2.2103     1.2219 C.3     
  13 C13           -3.7127     2.0940    -0.0514 C.2     
  14 O14           -3.7266     3.3099    -0.0548 O.2     
  15 N15           -4.8721     1.4068    -0.0624 N.am    
  16 N16            1.1863     2.1109     0.0021 N.am    
  17 C17            4.0680    -3.6895     0.0103 C.ar    
  18 C18            1.2294     3.3599     0.5068 C.2     
  19 C19            2.5092     4.0695     0.5995 C.2     
  20 C20            4.0807    -5.0784     0.0145 C.ar    
  21 O21            0.2059     3.8988     0.8856 O.2     
  22 C22            5.2839    -5.7564     0.0291 C.ar    
  23 C23            6.4749    -5.0542     0.0399 C.ar    
  24 C24            6.4659    -3.6711     0.0357 C.ar    
  25 C25            5.2666    -2.9870     0.0154 C.ar    
  26 C26            2.6935     5.3314     1.0877 C.2     
  27 C27            4.0665     5.6058     0.9887 C.2     
  28 C28            4.6527     4.5133     0.4513 C.2     
  29 O29            3.7118     3.5878     0.2228 O.3     
  30 C30            6.1236     4.3596     0.1615 C.3     
  31 C31            2.7831    -5.8446     0.0038 C.3     
  32 C32           -6.1490     2.1247    -0.0783 C.3     
  33 C33           -7.2831     1.1324    -0.0881 C.ar    
  34 C34           -7.8164     0.6805     1.1042 C.ar    
  35 C35           -8.8568    -0.2299     1.0952 C.ar    
  36 C36           -9.3640    -0.6878    -0.1062 C.ar    
  37 C37           -8.8312    -0.2351    -1.2990 C.ar    
  38 C38           -7.7940     0.6784    -1.2900 C.ar    
  39 C39           -9.4375    -0.7233     2.3953 C.3     
  40 N40          -10.5382     0.1586     2.8060 N.3     
  41 C41          -11.2836    -0.4193     3.9393 C.3     
  42 C42          -10.0306     1.4885     3.2055 C.3     
  43 C43          -10.9806     1.9505     4.3385 C.3     
  44 C44          -11.2527     0.6167     5.0827 C.3     
  45 H45           -1.1988    -1.7817    -0.0139 H       
  46 H46           -3.3386    -0.5775    -0.0406 H       
  47 H47           -1.2341     3.1627    -0.0218 H       
  48 H48            1.1878    -0.9260     2.0975 H       
  49 H49            0.5277    -2.2981     1.1748 H       
  50 H50            0.5943    -2.2348    -1.2714 H       
  51 H51            1.3016    -0.8178    -2.0847 H       
  52 H52            2.8648    -2.7577    -2.0924 H       
  53 H53            3.5249    -1.3856    -1.1697 H       
  54 H54            3.4584    -1.4489     1.2765 H       
  55 H55            2.7511    -2.8659     2.0898 H       
  56 H56           -4.8610     0.4369    -0.0597 H       
  57 H57            1.9917     1.7034    -0.3532 H       
  58 H58            5.2945    -6.8364     0.0324 H       
  59 H59            7.4144    -5.5868     0.0520 H       
  60 H60            7.3980    -3.1256     0.0445 H       
  61 H61            5.2603    -1.9070     0.0117 H       
  62 H62            1.9306     5.9908     1.4744 H       
  63 H63            4.5614     6.5185     1.2862 H       
  64 H64            6.6235     3.9373     1.0333 H       
  65 H65            6.2582     3.6951    -0.6919 H       
  66 H66            6.5529     5.3352    -0.0663 H       
  67 H67            2.4805    -6.0324    -1.0264 H       
  68 H68            2.9175    -6.7942     0.5218 H       
  69 H69            2.0126    -5.2615     0.5081 H       
  70 H70           -6.2237     2.7531     0.8093 H       
  71 H71           -6.2041     2.7483    -0.9706 H       
  72 H72           -7.4200     1.0383     2.0430 H       
  73 H73          -10.1763    -1.3995    -0.1133 H       
  74 H74           -9.2273    -0.5931    -2.2377 H       
  75 H75           -7.3778     1.0320    -2.2217 H       
  76 H76           -9.8146    -1.7375     2.2631 H       
  77 H77           -8.6639    -0.7205     3.1631 H       
  78 H78          -12.3144    -0.6149     3.6439 H       
  79 H79          -10.8067    -1.3441     4.2638 H       
  80 H80           -9.0086     1.4090     3.5760 H       
  81 H81          -10.0777     2.1808     2.3649 H       
  82 H82          -10.4872     2.6691     4.9930 H       
  83 H83          -11.9024     2.3650     3.9305 H       
  84 H84          -12.2129     0.6514     5.5973 H       
  85 H85          -10.4471     0.3944     5.7824 H       
@<TRIPOS>BOND
   1    1    2 ar
   2    1   16 1
   3    1    6 ar
   4    2    3 ar
   5    2    7 1
   6    3    4 ar
   7    3   45 1
   8    4    5 ar
   9    4   46 1
  10    5    6 ar
  11    5   13 1
  12    6   47 1
  13    7    8 1
  14    7    9 1
  15    8   12 1
  16    8   48 1
  17    8   49 1
  18    9   10 1
  19    9   50 1
  20    9   51 1
  21   10   11 1
  22   10   52 1
  23   10   53 1
  24   11   12 1
  25   11   17 1
  26   12   54 1
  27   12   55 1
  28   13   14 2
  29   13   15 am
  30   15   32 1
  31   15   56 1
  32   16   18 am
  33   16   57 1
  34   17   20 ar
  35   17   25 ar
  36   18   19 1
  37   18   21 2
  38   19   26 2
  39   19   29 1
  40   20   22 ar
  41   20   31 1
  42   22   23 ar
  43   22   58 1
  44   23   24 ar
  45   23   59 1
  46   24   25 ar
  47   24   60 1
  48   25   61 1
  49   26   27 1
  50   26   62 1
  51   27   28 2
  52   27   63 1
  53   28   29 1
  54   28   30 1
  55   30   64 1
  56   30   65 1
  57   30   66 1
  58   31   67 1
  59   31   68 1
  60   31   69 1
  61   32   33 1
  62   32   70 1
  63   32   71 1
  64   33   34 ar
  65   33   38 ar
  66   34   35 ar
  67   34   72 1
  68   35   36 ar
  69   35   39 1
  70   36   37 ar
  71   36   73 1
  72   37   38 ar
  73   37   74 1
  74   38   75 1
  75   39   40 1
  76   39   76 1
  77   39   77 1
  78   40   41 1
  79   40   42 1
  80   41   44 1
  81   41   78 1
  82   41   79 1
  83   42   43 1
  84   42   80 1
  85   42   81 1
  86   43   44 1
  87   43   82 1
  88   43   83 1
  89   44   84 1
  90   44   85 1

#	End of record

