#	Name: ASD01883491
#	Creating user name:	WinNT
#	Creation time:	15. 06. 2019 19:46

#	Modifying user name:	WinNT
#	Modification time:	15. 06. 2019 19:46

#	Program:	/corina/corina34_cracker 3.40 0067  02.08.2006

@<TRIPOS>MOLECULE
ASD01883491
  53   56    0    0    0
SMALL
NO_CHARGES


@<TRIPOS>ATOM
   1 N1            -0.0162     1.3417     0.0094 N.am    
   2 C2             0.0021    -0.0041     0.0020 C.2     
   3 C3            -1.2162    -0.7274     0.0102 C.2     
   4 C4            -2.4259    -0.0114     0.0261 C.2     
   5 C5            -2.3786     1.3964     0.0332 C.2     
   6 C6            -1.1850     2.0323     0.0299 C.2     
   7 O7             1.0656    -0.6000    -0.0121 O.2     
   8 C8            -1.2153    -2.1594     0.0021 C.1     
   9 N9            -1.2146    -3.2954    -0.0044 N.1     
  10 C10            1.2512     2.0765     0.0013 C.3     
  11 C11            1.6786     2.3400    -1.4440 C.3     
  12 C12            3.0023     3.1074    -1.4525 C.3     
  13 C13            3.4297     3.3709    -2.8978 C.3     
  14 C14           -3.7222    -0.7219     0.0347 C.ar    
  15 C15           -4.5645    -0.6146     1.1364 C.ar    
  16 C16           -5.7856    -1.2879     1.1356 C.ar    
  17 C17           -6.1479    -2.0658     0.0210 C.ar    
  18 C18           -5.2929    -2.1618    -1.0714 C.ar    
  19 C19           -4.1013    -1.4968    -1.0694 C.ar    
  20 N20           -6.8022    -1.3827     2.0318 N.2     
  21 C21           -7.7378    -2.1476     1.5505 C.2     
  22 N22           -7.3867    -2.5956     0.3145 N.pl3   
  23 C23           -9.0233    -2.4888     2.2590 C.3     
  24 C24           -8.1787    -3.4782    -0.5457 C.3     
  25 C25           -9.0747    -2.6478    -1.4282 C.ar    
  26 C26           -9.0251    -2.8121    -2.7993 C.ar    
  27 C27           -9.8536    -2.0431    -3.6025 C.ar    
  28 C28          -10.7045    -1.1338    -2.9932 C.ar    
  29 C29          -10.6988    -1.0248    -1.6153 C.ar    
  30 N30           -9.9008    -1.7765    -0.8826 N.ar    
  31 H31           -3.2950     1.9677     0.0450 H       
  32 H32           -1.1611     3.1120     0.0354 H       
  33 H33            1.1241     3.0259     0.5214 H       
  34 H34            2.0168     1.4860     0.5046 H       
  35 H35            1.8057     1.3906    -1.9642 H       
  36 H36            0.9131     2.9305    -1.9474 H       
  37 H37            2.8752     4.0568    -0.9323 H       
  38 H38            3.7678     2.5169    -0.9491 H       
  39 H39            4.3727     3.9176    -2.9038 H       
  40 H40            3.5568     2.4215    -3.4179 H       
  41 H41            2.6642     3.9614    -3.4011 H       
  42 H42           -4.2747    -0.0144     1.9862 H       
  43 H43           -5.5745    -2.7603    -1.9251 H       
  44 H44           -3.4418    -1.5756    -1.9210 H       
  45 H45           -9.7850    -1.7517     2.0048 H       
  46 H46           -9.3576    -3.4787     1.9486 H       
  47 H47           -8.8570    -2.4828     3.3363 H       
  48 H48           -7.5109    -4.0761    -1.1659 H       
  49 H49           -8.7878    -4.1375     0.0727 H       
  50 H50           -8.3493    -3.5301    -3.2399 H       
  51 H51           -9.8362    -2.1497    -4.6770 H       
  52 H52          -11.3633    -0.5182    -3.5877 H       
  53 H53          -11.3584    -0.3187    -1.1330 H       
@<TRIPOS>BOND
   1    1    2 am
   2    1   10 1
   3    1    6 1
   4    2    3 1
   5    2    7 2
   6    3    4 2
   7    3    8 1
   8    4    5 1
   9    4   14 1
  10    5    6 2
  11    5   31 1
  12    6   32 1
  13    8    9 3
  14   10   11 1
  15   10   33 1
  16   10   34 1
  17   11   12 1
  18   11   35 1
  19   11   36 1
  20   12   13 1
  21   12   37 1
  22   12   38 1
  23   13   39 1
  24   13   40 1
  25   13   41 1
  26   14   15 ar
  27   14   19 ar
  28   15   16 ar
  29   15   42 1
  30   16   17 ar
  31   16   20 1
  32   17   18 ar
  33   17   22 1
  34   18   19 ar
  35   18   43 1
  36   19   44 1
  37   20   21 2
  38   21   22 1
  39   21   23 1
  40   22   24 1
  41   23   45 1
  42   23   46 1
  43   23   47 1
  44   24   25 1
  45   24   48 1
  46   24   49 1
  47   25   26 ar
  48   25   30 ar
  49   26   27 ar
  50   26   50 1
  51   27   28 ar
  52   27   51 1
  53   28   29 ar
  54   28   52 1
  55   29   30 ar
  56   29   53 1

#	End of record

