#	Name: ASD01231300
#	Creating user name:	WinNT
#	Creation time:	15. 06. 2019 19:15

#	Modifying user name:	WinNT
#	Modification time:	15. 06. 2019 19:15

#	Program:	/corina/corina34_cracker 3.40 0067  02.08.2006

@<TRIPOS>MOLECULE
ASD01231300
  51   53    0    0    0
SMALL
NO_CHARGES


@<TRIPOS>ATOM
   1 C1             1.6213    -2.7273    -4.8377 C.2     
   2 C2             1.9547    -2.0215    -3.5820 C.ar    
   3 C3             2.0271    -2.7268    -2.3804 C.ar    
   4 C4             2.3399    -2.0590    -1.2083 C.ar    
   5 C5             2.5800    -0.6913    -1.2306 C.ar    
   6 C6             2.5081     0.0087    -2.4204 C.ar    
   7 C7             2.2037    -0.6482    -3.5954 C.ar    
   8 O8             1.4097    -3.9242    -4.8244 O.2     
   9 N9             1.5466    -2.0426    -5.9962 N.am    
  10 O10            2.4115    -2.7422    -0.0357 O.3     
  11 C11            2.1202    -8.3564    -0.2355 C.3     
  12 C12            3.4975    -8.6212    -0.8798 C.3     
  13 C13            4.2940    -7.3580    -0.4901 C.3     
  14 C14            3.2527    -6.2754    -0.3020 C.ar    
  15 C15            3.3889    -4.8987    -0.2622 C.ar    
  16 C16            2.2759    -4.0937    -0.0755 C.ar    
  17 C17            1.0229    -4.6719     0.0711 C.ar    
  18 C18            0.8905    -6.0449     0.0304 C.ar    
  19 C19            2.0033    -6.8492    -0.1556 C.ar    
  20 S20            3.9698   -11.2757    -1.0925 S.o2    
  21 O21            4.6581   -12.1938    -0.2543 O.2     
  22 O22            2.5754   -11.4064    -1.3326 O.2     
  23 N23            4.1155    -9.8222    -0.3125 N.am    
  24 C24            4.8654   -11.0438    -2.6529 C.3     
  25 C25            6.3261   -10.6987    -2.3561 C.3     
  26 C26            4.8026   -12.3336    -3.4735 C.3     
  27 C27            1.2162    -2.7419    -7.2404 C.3     
  28 H28            1.8395    -3.7903    -2.3644 H       
  29 H29            2.8234    -0.1728    -0.3150 H       
  30 H30            2.6952     1.0724    -2.4313 H       
  31 H31            2.1532    -0.0990    -4.5239 H       
  32 H32            1.7115    -1.0868    -6.0062 H       
  33 H33            1.3257    -8.7649    -0.8601 H       
  34 H34            2.0795    -8.7924     0.7627 H       
  35 H35            3.4089    -8.7046    -1.9630 H       
  36 H36            4.8376    -7.5256     0.4397 H       
  37 H37            4.9839    -7.0846    -1.2885 H       
  38 H38            4.3648    -4.4504    -0.3761 H       
  39 H39            0.1531    -4.0486     0.2171 H       
  40 H40           -0.0848    -6.4946     0.1445 H       
  41 H41            4.6101    -9.7660     0.5201 H       
  42 H42            4.4076   -10.2314    -3.2173 H       
  43 H43            6.8642   -10.5594    -3.2937 H       
  44 H44            6.3708    -9.7799    -1.7715 H       
  45 H45            6.7839   -11.5111    -1.7917 H       
  46 H46            3.7619   -12.5794    -3.6849 H       
  47 H47            5.3407   -12.1942    -4.4111 H       
  48 H48            5.2604   -13.1460    -2.9091 H       
  49 H49            1.9654    -3.5092    -7.4358 H       
  50 H50            0.2353    -3.2076    -7.1460 H       
  51 H51            1.2023    -2.0293    -8.0650 H       
@<TRIPOS>BOND
   1    1    2 1
   2    1    8 2
   3    1    9 am
   4    2    3 ar
   5    2    7 ar
   6    3    4 ar
   7    3   28 1
   8    4    5 ar
   9    4   10 1
  10    5    6 ar
  11    5   29 1
  12    6    7 ar
  13    6   30 1
  14    7   31 1
  15    9   27 1
  16    9   32 1
  17   10   16 1
  18   11   12 1
  19   11   19 1
  20   11   33 1
  21   11   34 1
  22   12   13 1
  23   12   23 1
  24   12   35 1
  25   13   14 1
  26   13   36 1
  27   13   37 1
  28   14   15 ar
  29   14   19 ar
  30   15   16 ar
  31   15   38 1
  32   16   17 ar
  33   17   18 ar
  34   17   39 1
  35   18   19 ar
  36   18   40 1
  37   20   21 2
  38   20   22 2
  39   20   23 am
  40   20   24 1
  41   23   41 1
  42   24   25 1
  43   24   26 1
  44   24   42 1
  45   25   43 1
  46   25   44 1
  47   25   45 1
  48   26   46 1
  49   26   47 1
  50   26   48 1
  51   27   49 1
  52   27   50 1
  53   27   51 1

#	End of record

