#	Name: ASD03430026
#	Creating user name:	WinNT
#	Creation time:	15. 06. 2019 20:40

#	Modifying user name:	WinNT
#	Modification time:	15. 06. 2019 20:40

#	Program:	/corina/corina34_cracker 3.40 0067  02.08.2006

@<TRIPOS>MOLECULE
ASD03430026
  55   60    0    0    0
SMALL
NO_CHARGES


@<TRIPOS>ATOM
   1 C1            -0.0167     1.3821     0.0096 C.ar    
   2 C2             0.0021    -0.0041     0.0020 C.ar    
   3 C3             1.2027    -0.6820    -0.0146 C.ar    
   4 C4             2.4085     0.0129    -0.0142 C.ar    
   5 C5             2.3859     1.4039    -0.0114 C.ar    
   6 C6             1.1815     2.0869     0.0020 C.ar    
   7 O7             3.4713    -0.8417    -0.0026 O.3     
   8 C8             1.5512    -2.1458    -0.0472 C.3     
   9 C9             3.0373    -2.1462    -0.4322 C.3     
  10 C10            0.4309    -3.8628     1.0096 C.ar    
  11 C11            1.3148    -2.8193     1.2719 C.ar    
  12 C12            0.7195    -2.9085    -1.0382 C.2     
  13 N13            0.1031    -3.8887    -0.3481 N.am    
  14 O14            0.6212    -2.6857    -2.2263 O.2     
  15 C15            1.7765    -2.5967     2.5501 C.ar    
  16 C16            1.3646    -3.4137     3.5878 C.ar    
  17 C17            0.4882    -4.4541     3.3385 C.ar    
  18 C18            0.0222    -4.6807     2.0603 C.ar    
  19 C19           -0.8045    -4.8675    -0.9517 C.3     
  20 O20           -1.2112     2.0357     0.0189 O.3     
  21 O21            1.1867     3.4485     0.0119 O.3     
  22 C22           -2.2146    -4.3376    -0.9099 C.ar    
  23 C23           -2.7072    -3.5836    -1.9558 C.ar    
  24 N24           -3.9406    -3.1148    -1.9301 N.ar    
  25 C25           -4.7501    -3.3463    -0.9084 C.ar    
  26 C26           -4.3194    -4.0988     0.1798 C.ar    
  27 C27           -3.0335    -4.6078     0.1788 C.ar    
  28 C28           -1.1863     3.4157     0.4000 C.3     
  29 C29           -0.0357     4.0997    -0.3499 C.3     
  30 N30           -6.0417    -2.8327    -0.9227 N.pl3   
  31 C31           -6.9060    -2.9909     0.2496 C.3     
  32 C32           -6.5387    -2.1332    -2.1101 C.3     
  33 H33           -0.9269    -0.5549     0.0095 H       
  34 H34            3.3146     1.9551    -0.0197 H       
  35 H35            3.1580    -2.2589    -1.5096 H       
  36 H36            3.5755    -2.9287     0.1027 H       
  37 H37            2.4611    -1.7839     2.7425 H       
  38 H38            1.7268    -3.2395     4.5902 H       
  39 H39            0.1675    -5.0925     4.1485 H       
  40 H40           -0.6624    -5.4949     1.8735 H       
  41 H41           -0.5129    -5.0431    -1.9872 H       
  42 H42           -0.7514    -5.8035    -0.3956 H       
  43 H43           -2.0750    -3.3742    -2.8060 H       
  44 H44           -4.9815    -4.2861     1.0123 H       
  45 H45           -2.6716    -5.1954     1.0095 H       
  46 H46           -2.1314     3.8882     0.1325 H       
  47 H47           -1.0250     3.4975     1.4749 H       
  48 H48            0.0112     5.1521    -0.0700 H       
  49 H49           -0.1936     4.0114    -1.4248 H       
  50 H50           -6.7708    -2.1406     0.9180 H       
  51 H51           -7.9468    -3.0397    -0.0704 H       
  52 H52           -6.6433    -3.9101     0.7732 H       
  53 H53           -6.5140    -2.8076    -2.9661 H       
  54 H54           -7.5633    -1.8046    -1.9360 H       
  55 H55           -5.9086    -1.2670    -2.3118 H       
@<TRIPOS>BOND
   1    1    2 ar
   2    1    6 ar
   3    1   20 1
   4    2    3 ar
   5    2   33 1
   6    3    4 ar
   7    3    8 1
   8    4    5 ar
   9    4    7 1
  10    5    6 ar
  11    5   34 1
  12    6   21 1
  13    7    9 1
  14    8    9 1
  15    8   11 1
  16    8   12 1
  17    9   35 1
  18    9   36 1
  19   10   11 ar
  20   10   13 1
  21   10   18 ar
  22   11   15 ar
  23   12   13 am
  24   12   14 2
  25   13   19 1
  26   15   16 ar
  27   15   37 1
  28   16   17 ar
  29   16   38 1
  30   17   18 ar
  31   17   39 1
  32   18   40 1
  33   19   22 1
  34   19   41 1
  35   19   42 1
  36   20   28 1
  37   21   29 1
  38   22   23 ar
  39   22   27 ar
  40   23   24 ar
  41   23   43 1
  42   24   25 ar
  43   25   26 ar
  44   25   30 1
  45   26   27 ar
  46   26   44 1
  47   27   45 1
  48   28   29 1
  49   28   46 1
  50   28   47 1
  51   29   48 1
  52   29   49 1
  53   30   31 1
  54   30   32 1
  55   31   50 1
  56   31   51 1
  57   31   52 1
  58   32   53 1
  59   32   54 1
  60   32   55 1

#	End of record

