#	Name: ASD00602015
#	Creating user name:	WinNT
#	Creation time:	15. 06. 2019 18:36

#	Modifying user name:	WinNT
#	Modification time:	15. 06. 2019 18:36

#	Program:	/corina/corina34_cracker 3.40 0067  02.08.2006

@<TRIPOS>MOLECULE
ASD00602015
  78   82    0    0    0
SMALL
NO_CHARGES


@<TRIPOS>ATOM
   1 O1             0.2372     0.1047     0.2743 O.2     
   2 C2             0.2407     1.3154     0.3464 C.2     
   3 C3             1.5456     2.0590     0.4711 C.3     
   4 C4             2.7034     1.0588     0.4831 C.3     
   5 C5             4.0281     1.8138     0.6097 C.3     
   6 C6             4.1884     2.7652    -0.5777 C.3     
   7 C7             3.0306     3.7654    -0.5897 C.3     
   8 C8             1.7058     3.0105    -0.7163 C.3     
   9 F9             5.3997     3.4555    -0.4620 F       
  10 F10            4.1823     2.0305    -1.7682 F       
  11 N11           -0.9219     1.9961     0.3095 N.am    
  12 C12           -2.1900     1.2736     0.1823 C.3     
  13 C13           -2.4696     1.0021    -1.2735 C.ar    
  14 C14           -3.0035    -0.2130    -1.6599 C.ar    
  15 C15           -3.2599    -0.4620    -2.9952 C.ar    
  16 C16           -2.9828     0.5043    -3.9441 C.ar    
  17 C17           -2.4497     1.7197    -3.5576 C.ar    
  18 C18           -2.1973     1.9703    -2.2218 C.ar    
  19 C19           -3.3207     2.1207     0.7694 C.3     
  20 C20           -3.1015     2.2916     2.2740 C.3     
  21 N21           -4.1872     3.1049     2.8377 N.3     
  22 C22           -4.1443     3.0945     4.3242 C.3     
  23 C23           -4.7447     1.7236     4.7120 C.3     
  24 C24           -5.6503     1.3384     3.5237 C.3     
  25 C25           -5.5147     2.5116     2.5259 C.3     
  26 C26           -6.5787     3.5608     2.8864 C.3     
  27 C27           -6.5336     3.8139     4.3960 C.3     
  28 C28           -5.1086     4.1860     4.8155 C.3     
  29 N29           -7.4432     4.9117     4.7333 N.pl3   
  30 C30           -8.5086     4.8599     5.5688 C.2     
  31 C31           -8.9859     3.6524     6.3338 C.3     
  32 N32           -9.0446     6.0498     5.5888 N.2     
  33 N33           -8.3800     6.8370     4.8192 N.2     
  34 C34           -7.3863     6.1865     4.2778 C.2     
  35 C35           -6.3703     6.7468     3.3162 C.3     
  36 C36           -7.0827     7.2598     2.0631 C.3     
  37 C37           -5.6183     7.9001     3.9835 C.3     
  38 H38            1.5504     2.6314     1.3986 H       
  39 H39            2.5892     0.3810     1.3290 H       
  40 H40            2.6986     0.4864    -0.4445 H       
  41 H41            4.0329     2.3862     1.5372 H       
  42 H42            4.8530     1.1013     0.6182 H       
  43 H43            3.0354     4.3379     0.3378 H       
  44 H44            3.1448     4.4432    -1.4356 H       
  45 H45            1.7011     2.4380    -1.6438 H       
  46 H46            0.8810     3.7230    -0.7248 H       
  47 H47           -0.9191     2.9644     0.3672 H       
  48 H48           -2.1257     0.3289     0.7222 H       
  49 H49           -3.2201    -0.9679    -0.9185 H       
  50 H50           -3.6765    -1.4116    -3.2971 H       
  51 H51           -3.1825     0.3094    -4.9875 H       
  52 H52           -2.2328     2.4745    -4.2990 H       
  53 H53           -1.7808     2.9200    -1.9199 H       
  54 H54           -3.3282     3.0995     0.2898 H       
  55 H55           -4.2751     1.6236     0.5955 H       
  56 H56           -3.0941     1.3128     2.7536 H       
  57 H57           -2.1472     2.7887     2.4479 H       
  58 H58           -3.1327     3.2249     4.7086 H       
  59 H59           -3.9531     0.9854     4.8404 H       
  60 H60           -5.3338     1.8120     5.6248 H       
  61 H61           -5.3040     0.4108     3.0679 H       
  62 H62           -6.6847     1.2375     3.8522 H       
  63 H63           -5.5858     2.1815     1.4895 H       
  64 H64           -6.3710     4.4890     2.3542 H       
  65 H65           -7.5653     3.1909     2.6075 H       
  66 H66           -6.8433     2.9122     4.9243 H       
  67 H67           -5.0550     4.2586     5.9017 H       
  68 H68           -4.8349     5.1424     4.3700 H       
  69 H69           -8.4282     3.5696     7.2667 H       
  70 H70          -10.0482     3.7580     6.5537 H       
  71 H71           -8.8263     2.7561     5.7344 H       
  72 H72           -5.6636     5.9650     3.0380 H       
  73 H73           -7.7894     8.0416     2.3413 H       
  74 H74           -6.3478     7.6651     1.3676 H       
  75 H75           -7.6184     6.4382     1.5877 H       
  76 H76           -5.1108     7.5347     4.8762 H       
  77 H77           -4.8834     8.3054     3.2880 H       
  78 H78           -6.3250     8.6819     4.2618 H       
@<TRIPOS>BOND
   1    1    2 2
   2    2    3 1
   3    2   11 am
   4    3    4 1
   5    3    8 1
   6    3   38 1
   7    4    5 1
   8    4   39 1
   9    4   40 1
  10    5    6 1
  11    5   41 1
  12    5   42 1
  13    6    7 1
  14    6    9 1
  15    6   10 1
  16    7    8 1
  17    7   43 1
  18    7   44 1
  19    8   45 1
  20    8   46 1
  21   11   12 1
  22   11   47 1
  23   12   13 1
  24   12   19 1
  25   12   48 1
  26   13   14 ar
  27   13   18 ar
  28   14   15 ar
  29   14   49 1
  30   15   16 ar
  31   15   50 1
  32   16   17 ar
  33   16   51 1
  34   17   18 ar
  35   17   52 1
  36   18   53 1
  37   19   20 1
  38   19   54 1
  39   19   55 1
  40   20   21 1
  41   20   56 1
  42   20   57 1
  43   21   22 1
  44   21   25 1
  45   22   23 1
  46   22   28 1
  47   22   58 1
  48   23   24 1
  49   23   59 1
  50   23   60 1
  51   24   25 1
  52   24   61 1
  53   24   62 1
  54   25   26 1
  55   25   63 1
  56   26   27 1
  57   26   64 1
  58   26   65 1
  59   27   28 1
  60   27   29 1
  61   27   66 1
  62   28   67 1
  63   28   68 1
  64   29   30 1
  65   29   34 1
  66   30   31 1
  67   30   32 2
  68   31   69 1
  69   31   70 1
  70   31   71 1
  71   32   33 1
  72   33   34 2
  73   34   35 1
  74   35   36 1
  75   35   37 1
  76   35   72 1
  77   36   73 1
  78   36   74 1
  79   36   75 1
  80   37   76 1
  81   37   77 1
  82   37   78 1

#	End of record

