#	Name: ASD04870007
#	Creating user name:	WinNT
#	Creation time:	15. 06. 2019 20:52

#	Modifying user name:	WinNT
#	Modification time:	15. 06. 2019 20:52

#	Program:	/corina/corina34_cracker 3.40 0067  02.08.2006

@<TRIPOS>MOLECULE
ASD04870007
  55   58    0    0    0
SMALL
NO_CHARGES


@<TRIPOS>ATOM
   1 C1             1.6150     0.5000     0.0146 C.3     
   2 N2             1.1168    -0.8692    -0.1378 N.am    
   3 C3             1.1320    -1.7545     0.9502 C.ar    
   4 C4             2.1306    -1.5908     1.9053 C.ar    
   5 C5             2.1918    -2.4188     3.0069 C.ar    
   6 C6             1.2527    -3.4290     3.1764 C.ar    
   7 N7             1.3145    -4.2623     4.2998 N.pl3   
   8 C8             2.3696    -4.0696     5.2977 C.3     
   9 C9             2.2130    -5.0879     6.3975 C.ar    
  10 C10            2.8475    -6.3123     6.3013 C.ar    
  11 C11            2.7037    -7.2464     7.3101 C.ar    
  12 C12            1.9259    -6.9559     8.4153 C.ar    
  13 C13            1.2921    -5.7312     8.5119 C.ar    
  14 C14            1.4394    -4.7955     7.5051 C.ar    
  15 C15            1.7684    -7.9746     9.5146 C.3     
  16 C16            3.1409    -8.3042    10.1049 C.3     
  17 C17            0.8648    -7.4064    10.6108 C.3     
  18 C18            1.1395    -9.2474     8.9442 C.3     
  19 C19            0.2556    -3.6099     2.2328 C.ar    
  20 C20            0.1912    -2.7806     1.1119 C.ar    
  21 C21           -0.8619    -3.0167     0.1033 C.2     
  22 C22           -0.8170    -2.4492    -1.1541 C.2     
  23 C23           -1.9248    -2.8550    -1.8605 C.2     
  24 N24           -2.6383    -3.6418    -1.0840 N.2     
  25 N25           -1.9897    -3.7574     0.1577 N.pl3   
  26 C26           -2.4540    -4.5410     1.3051 C.3     
  27 S27            0.5187    -1.3906    -1.6054 S.o2    
  28 O28           -0.0482    -0.2575    -2.2489 O.2     
  29 O29            1.5171    -2.2143    -2.1918 O.2     
  30 H30            2.6801     0.5268    -0.2153 H       
  31 H31            1.0793     1.1597    -0.6680 H       
  32 H32            1.4562     0.8323     1.0405 H       
  33 H33            2.8645    -0.8079     1.7831 H       
  34 H34            2.9727    -2.2816     3.7402 H       
  35 H35            0.6586    -4.9673     4.4174 H       
  36 H36            3.3439    -4.1926     4.8247 H       
  37 H37            2.2937    -3.0666     5.7177 H       
  38 H38            3.4552    -6.5392     5.4378 H       
  39 H39            3.1988    -8.2032     7.2346 H       
  40 H40            0.6841    -5.5044     9.3752 H       
  41 H41            0.9472    -3.8372     7.5823 H       
  42 H42            3.5889    -7.3975    10.5113 H       
  43 H43            3.0269    -9.0411    10.9001 H       
  44 H44            3.7846    -8.7090     9.3240 H       
  45 H45           -0.1130    -7.1716    10.1903 H       
  46 H46            0.7509    -8.1432    11.4060 H       
  47 H47            1.3128    -6.4996    11.0172 H       
  48 H48            1.7832    -9.6522     8.1632 H       
  49 H49            1.0256    -9.9842     9.7393 H       
  50 H50            0.1617    -9.0126     8.5236 H       
  51 H51           -0.4746    -4.3947     2.3646 H       
  52 H52           -2.1670    -2.5764    -2.8754 H       
  53 H53           -2.9424    -3.8810     2.0220 H       
  54 H54           -3.1622    -5.2970     0.9661 H       
  55 H55           -1.6027    -5.0279     1.7809 H       
@<TRIPOS>BOND
   1    1    2 1
   2    1   30 1
   3    1   31 1
   4    1   32 1
   5    2    3 1
   6    2   27 am
   7    3    4 ar
   8    3   20 ar
   9    4    5 ar
  10    4   33 1
  11    5    6 ar
  12    5   34 1
  13    6    7 1
  14    6   19 ar
  15    7    8 1
  16    7   35 1
  17    8    9 1
  18    8   36 1
  19    8   37 1
  20    9   10 ar
  21    9   14 ar
  22   10   11 ar
  23   10   38 1
  24   11   12 ar
  25   11   39 1
  26   12   13 ar
  27   12   15 1
  28   13   14 ar
  29   13   40 1
  30   14   41 1
  31   15   16 1
  32   15   17 1
  33   15   18 1
  34   16   42 1
  35   16   43 1
  36   16   44 1
  37   17   45 1
  38   17   46 1
  39   17   47 1
  40   18   48 1
  41   18   49 1
  42   18   50 1
  43   19   20 ar
  44   19   51 1
  45   20   21 1
  46   21   22 2
  47   21   25 1
  48   22   23 1
  49   22   27 1
  50   23   24 2
  51   23   52 1
  52   24   25 1
  53   25   26 1
  54   26   53 1
  55   26   54 1
  56   26   55 1
  57   27   28 2
  58   27   29 2

#	End of record

