#	Name: ASD01903079
#	Creating user name:	WinNT
#	Creation time:	15. 06. 2019 19:54

#	Modifying user name:	WinNT
#	Modification time:	15. 06. 2019 19:54

#	Program:	/corina/corina34_cracker 3.40 0067  02.08.2006

@<TRIPOS>MOLECULE
ASD01903079
  25   27    0    0    0
SMALL
NO_CHARGES


@<TRIPOS>ATOM
   1 C1            -0.0162     1.3110     0.0196 C.2     
   2 N2             0.0006    -0.0034     0.0047 N.2     
   3 C3            -1.1695    -0.6134     0.0259 C.2     
   4 N4            -2.2419     0.1364     0.0596 N.2     
   5 S5            -1.6834     1.7412     0.0709 S.3     
   6 C6            -1.2659    -2.0946     0.0114 C.2     
   7 N7             1.0728     2.1661     0.0034 N.pl3   
   8 C8            -0.1863    -2.9987    -0.0242 C.2     
   9 N9            -0.6726    -4.2115    -0.0260 N.2     
  10 N10           -2.0699    -4.1306     0.0082 N.pl3   
  11 C11           -2.4162    -2.8281     0.0362 C.2     
  12 C12            0.8768     3.5407    -0.0924 C.ar    
  13 N13           -0.3449     4.0183    -0.2720 N.ar    
  14 C14           -0.5742     5.3142    -0.3675 C.ar    
  15 C15            0.4603     6.2243    -0.2828 C.ar    
  16 C16            1.7571     5.7644    -0.0945 C.ar    
  17 C17            1.9656     4.4008     0.0072 C.ar    
  18 H18            1.9722     1.8072     0.0589 H       
  19 H19            0.8609    -2.7354    -0.0462 H       
  20 H20           -2.6831    -4.8823     0.0140 H       
  21 H21           -3.4221    -2.4361     0.0662 H       
  22 H22           -1.5842     5.6674    -0.5142 H       
  23 H23            0.2632     7.2832    -0.3624 H       
  24 H24            2.5837     6.4561    -0.0253 H       
  25 H25            2.9612     4.0088     0.1539 H       
@<TRIPOS>BOND
   1    1    2 2
   2    1    7 1
   3    1    5 1
   4    2    3 1
   5    3    4 2
   6    3    6 1
   7    4    5 1
   8    6    8 1
   9    6   11 2
  10    7   12 1
  11    7   18 1
  12    8    9 2
  13    8   19 1
  14    9   10 1
  15   10   11 1
  16   10   20 1
  17   11   21 1
  18   12   13 ar
  19   12   17 ar
  20   13   14 ar
  21   14   15 ar
  22   14   22 1
  23   15   16 ar
  24   15   23 1
  25   16   17 ar
  26   16   24 1
  27   17   25 1

#	End of record

