#	Name: ASD00960132
#	Creating user name:	WinNT
#	Creation time:	15. 06. 2019 18:53

#	Modifying user name:	WinNT
#	Modification time:	15. 06. 2019 18:53

#	Program:	/corina/corina34_cracker 3.40 0067  02.08.2006

@<TRIPOS>MOLECULE
ASD00960132
  41   44    0    0    0
SMALL
NO_CHARGES


@<TRIPOS>ATOM
   1 C1             0.7595     2.2484    -0.4437 C.3     
   2 C2             0.4404     0.7841    -0.0690 C.3     
   3 O3             0.0505     0.1616    -1.3126 O.3     
   4 C4            -0.7634     1.1433    -1.9906 C.3     
   5 C5            -0.8196     0.8446    -3.4901 C.3     
   6 C6             1.6637     0.1084     0.4949 C.2     
   7 C7             2.0601     0.1607     1.7896 C.2     
   8 N8             2.5339    -0.6498    -0.2120 N.pl3   
   9 C9             3.5232    -1.0982     0.6395 C.2     
  10 C10            3.2417    -0.5965     1.9103 C.2     
  11 N11            2.5968    -1.0283    -1.5609 N.2     
  12 C12            3.5729    -1.7854    -1.9820 C.2     
  13 N13            4.5327    -2.2241    -1.1705 N.2     
  14 C14            4.5474    -1.9135     0.1164 C.2     
  15 N15            5.5547    -2.3822     0.9367 N.pl3   
  16 C16           -0.0507     2.4902    -1.7369 C.3     
  17 O17            2.1577     2.4086    -0.6915 O.3     
  18 C18            4.0282    -0.8161     3.1407 C.2     
  19 O19           -1.4156    -0.4374    -3.6984 O.3     
  20 N20            5.3882    -0.7324     3.2699 N.pl3   
  21 N21            5.6725    -1.0193     4.6135 N.2     
  22 N22            4.5626    -1.2527     5.2215 N.2     
  23 C23            3.5420    -1.1370     4.3754 C.2     
  24 O24           -1.0071     3.5336    -1.5409 O.3     
  25 *25           -0.5313     4.8180    -1.8756 Du      
  26 N26           -2.1146     1.1642    -1.4248 N.2     
  27 N27           -2.7582     0.2439    -1.4725 N.1     
  28 N28           -3.4017    -0.6764    -1.5202 N.pl3   
  29 H29            0.4327     2.9246     0.3463 H       
  30 H30           -0.3797     0.7459     0.6480 H       
  31 H31           -1.4154     1.6079    -3.9906 H       
  32 H32            0.1908     0.8463    -3.8990 H       
  33 H33            1.5592     0.6892     2.5872 H       
  34 H34            3.6029    -2.0659    -3.0245 H       
  35 H35            6.3352    -2.8097     0.5507 H       
  36 H36            5.4818    -2.2839     1.8990 H       
  37 H37            0.6153     2.7318    -2.5653 H       
  38 H38            2.4140     3.3097    -0.9311 H       
  39 H39           -1.4837    -0.6930    -4.6285 H       
  40 H40            6.0272    -0.5180     2.5724 H       
  41 H41            2.5006    -1.2801     4.6233 H       
@<TRIPOS>BOND
   1    1    2 1
   2    1   17 1
   3    1   16 1
   4    1   29 1
   5    2    3 1
   6    2    6 1
   7    2   30 1
   8    3    4 1
   9    4    5 1
  10    4   26 1
  11    4   16 1
  12    5   19 1
  13    5   31 1
  14    5   32 1
  15    6    7 2
  16    6    8 1
  17    7   10 1
  18    7   33 1
  19    8    9 1
  20    8   11 1
  21    9   10 2
  22    9   14 1
  23   10   18 1
  24   11   12 2
  25   12   13 1
  26   12   34 1
  27   13   14 2
  28   14   15 1
  29   15   35 1
  30   15   36 1
  31   16   24 1
  32   16   37 1
  33   17   38 1
  34   18   20 1
  35   18   23 2
  36   19   39 1
  37   20   21 1
  38   20   40 1
  39   21   22 2
  40   22   23 1
  41   23   41 1
  42   24   25 1
  43   26   27 2
  44   27   28 2

#	End of record

