#	Name: ASD01410250
#	Creating user name:	WinNT
#	Creation time:	15. 06. 2019 19:17

#	Modifying user name:	WinNT
#	Modification time:	15. 06. 2019 19:17

#	Program:	/corina/corina34_cracker 3.40 0067  02.08.2006

@<TRIPOS>MOLECULE
ASD01410250
  27   28    0    0    0
SMALL
NO_CHARGES


@<TRIPOS>ATOM
   1 C1            -0.0165     1.3753     0.0329 C.ar    
   2 C2             0.0019    -0.0056     0.0281 C.ar    
   3 C3            -1.1843    -0.7223     0.0312 C.ar    
   4 C4            -2.3949    -0.0633     0.0397 C.ar    
   5 C5            -2.4277     1.3336     0.0451 C.ar    
   6 C6            -1.2262     2.0547     0.0468 C.ar    
   7 O7            -1.2458     3.4113     0.0526 O.3     
   8 I8             1.7845     2.4455     0.0281 I       
   9 C9            -3.7198     2.0451     0.0537 C.2     
  10 N10           -4.8731     1.3478     0.0564 N.am    
  11 O11           -3.7444     3.2609     0.0585 O.2     
  12 C12           -7.2167     1.5452    -0.4922 C.ar    
  13 C13           -6.0952     2.0176     0.1773 C.ar    
  14 C14           -6.1895     3.1559     0.9673 C.ar    
  15 C15           -7.3974     3.8149     1.0852 C.ar    
  16 C16           -8.5132     3.3419     0.4175 C.ar    
  17 C17           -8.4222     2.2080    -0.3703 C.ar    
  18 I18           -1.1372    -2.8168     0.0223 I       
  19 Br19         -10.1656     4.2463     0.5824 Br      
  20 H20            0.9460    -0.5299     0.0214 H       
  21 H21           -3.3168    -0.6259     0.0417 H       
  22 H22           -1.2504     3.8008     0.9376 H       
  23 H23           -4.8558     0.3814    -0.0256 H       
  24 H24           -7.1452     0.6628    -1.1107 H       
  25 H25           -5.3191     3.5252     1.4893 H       
  26 H26           -7.4713     4.7002     1.6994 H       
  27 H27           -9.2946     1.8410    -0.8903 H       
@<TRIPOS>BOND
   1    1    2 ar
   2    1    8 1
   3    1    6 ar
   4    2    3 ar
   5    2   20 1
   6    3    4 ar
   7    3   18 1
   8    4    5 ar
   9    4   21 1
  10    5    6 ar
  11    5    9 1
  12    6    7 1
  13    7   22 1
  14    9   10 am
  15    9   11 2
  16   10   13 1
  17   10   23 1
  18   12   13 ar
  19   12   17 ar
  20   12   24 1
  21   13   14 ar
  22   14   15 ar
  23   14   25 1
  24   15   16 ar
  25   15   26 1
  26   16   17 ar
  27   16   19 1
  28   17   27 1

#	End of record

