#	Name: ASD03092301
#	Creating user name:	WinNT
#	Creation time:	15. 06. 2019 20:32

#	Modifying user name:	WinNT
#	Modification time:	15. 06. 2019 20:32

#	Program:	/corina/corina34_cracker 3.40 0067  02.08.2006

@<TRIPOS>MOLECULE
ASD03092301
  59   62    0    0    0
SMALL
NO_CHARGES


@<TRIPOS>ATOM
   1 C1             0.3381     1.9869     0.1444 C.2     
   2 C2             0.5503     0.5257     0.2227 C.ar    
   3 C3             1.8454     0.0055     0.2343 C.ar    
   4 C4             2.0364    -1.3610     0.3076 C.ar    
   5 C5             0.9450    -2.2129     0.3694 C.ar    
   6 C6            -0.3400    -1.7015     0.3582 C.ar    
   7 C7            -0.5434    -0.3384     0.2911 C.ar    
   8 O8             1.2925     2.7376     0.0899 O.2     
   9 N9            -0.9137     2.4860     0.1277 N.am    
  10 F10            3.2889    -1.8674     0.3186 F       
  11 C11           -1.1240     3.9338     0.0501 C.3     
  12 S12           -4.9831     4.7277    -0.6389 S.3     
  13 C13           -4.5795     4.5798     1.0156 C.2     
  14 N14           -3.3130     4.3230     1.1493 N.2     
  15 C15           -2.6022     4.2272     0.0467 C.2     
  16 C16           -3.3087     4.4139    -1.0878 C.2     
  17 C17           -2.5481     5.2854    -4.6608 C.ar    
  18 C18           -3.0704     5.3722    -3.3885 C.ar    
  19 C19           -2.7731     4.3636    -2.4622 C.ar    
  20 C20           -1.9528     3.3060    -2.8774 C.ar    
  21 C21           -1.4745     3.2996    -4.1697 C.ar    
  22 N22           -1.7790     4.2709    -5.0105 N.ar    
  23 C23           -0.5913     2.1685    -4.6296 C.3     
  24 C24           -2.8648     6.3598    -5.6689 C.3     
  25 N25           -5.4733     4.7147     2.0623 N.3     
  26 C26           -6.8266     5.0034     1.5656 C.3     
  27 C27           -7.7691     5.2036     2.7553 C.3     
  28 O28           -7.7340     4.0400     3.5860 O.3     
  29 C29           -6.4312     3.7298     4.0877 C.3     
  30 C30           -5.4751     3.5146     2.9115 C.3     
  31 C31           -6.4987     2.4550     4.9311 C.3     
  32 C32           -9.1947     5.4251     2.2460 C.3     
  33 H33            2.6959     0.6693     0.1858 H       
  34 H34            1.0985    -3.2804     0.4263 H       
  35 H35           -1.1863    -2.3706     0.4066 H       
  36 H36           -1.5476     0.0590     0.2869 H       
  37 H37           -1.6754     1.8867     0.1671 H       
  38 H38           -0.6600     4.4150     0.9111 H       
  39 H39           -0.6753     4.3175    -0.8661 H       
  40 H40           -3.6986     6.2052    -3.1093 H       
  41 H41           -1.6990     2.5085    -2.1948 H       
  42 H42           -1.2082     1.3716    -5.0449 H       
  43 H43            0.0960     2.5317    -5.3937 H       
  44 H44           -0.0228     1.7840    -3.7827 H       
  45 H45           -2.1138     7.1475    -5.6084 H       
  46 H46           -2.8611     5.9305    -6.6708 H       
  47 H47           -3.8485     6.7786    -5.4567 H       
  48 H48           -6.8065     5.9098     0.9605 H       
  49 H49           -7.1777     4.1682     0.9596 H       
  50 H50           -7.4487     6.0718     3.3313 H       
  51 H51           -6.0720     4.5551     4.7025 H       
  52 H52           -5.8047     2.6556     2.3270 H       
  53 H53           -4.4686     3.3343     3.2889 H       
  54 H54           -6.8562     1.6301     4.3148 H       
  55 H55           -5.5055     2.2191     5.3132 H       
  56 H56           -7.1824     2.6075     5.7661 H       
  57 H57           -9.5146     4.5555     1.6719 H       
  58 H58           -9.8653     5.5676     3.0935 H       
  59 H59           -9.2200     6.3098     1.6099 H       
@<TRIPOS>BOND
   1    1    2 1
   2    1    8 2
   3    1    9 am
   4    2    3 ar
   5    2    7 ar
   6    3    4 ar
   7    3   33 1
   8    4    5 ar
   9    4   10 1
  10    5    6 ar
  11    5   34 1
  12    6    7 ar
  13    6   35 1
  14    7   36 1
  15    9   11 1
  16    9   37 1
  17   11   15 1
  18   11   38 1
  19   11   39 1
  20   12   13 1
  21   12   16 1
  22   13   14 2
  23   13   25 1
  24   14   15 1
  25   15   16 2
  26   16   19 1
  27   17   18 ar
  28   17   22 ar
  29   17   24 1
  30   18   19 ar
  31   18   40 1
  32   19   20 ar
  33   20   21 ar
  34   20   41 1
  35   21   22 ar
  36   21   23 1
  37   23   42 1
  38   23   43 1
  39   23   44 1
  40   24   45 1
  41   24   46 1
  42   24   47 1
  43   25   26 1
  44   25   30 1
  45   26   27 1
  46   26   48 1
  47   26   49 1
  48   27   28 1
  49   27   32 1
  50   27   50 1
  51   28   29 1
  52   29   30 1
  53   29   31 1
  54   29   51 1
  55   30   52 1
  56   30   53 1
  57   31   54 1
  58   31   55 1
  59   31   56 1
  60   32   57 1
  61   32   58 1
  62   32   59 1

#	End of record

