#	Name: ASD04690002
#	Creating user name:	WinNT
#	Creation time:	15. 06. 2019 20:52

#	Modifying user name:	WinNT
#	Modification time:	15. 06. 2019 20:52

#	Program:	/corina/corina34_cracker 3.40 0067  02.08.2006

@<TRIPOS>MOLECULE
ASD04690002
  29   28    0    0    0
SMALL
NO_CHARGES


@<TRIPOS>ATOM
   1 C1            -0.0187     1.5258     0.0104 C.3     
   2 C2             0.0021    -0.0041     0.0020 C.3     
   3 C3            -1.4333    -0.5336     0.0129 C.3     
   4 S4             1.6831     2.1537    -0.0024 S.o2    
   5 O5             1.6466     3.6078     0.0057 O.co2   
   6 O6             2.3728     1.6637     1.1809 O.co2   
   7 O7             2.3500     1.6765    -1.2040 O.co2   
   8 N8            -1.4134    -2.0025     0.0048 N.4     
   9 C9            -0.7258    -2.4762    -1.2038 C.3     
  10 C10           -0.7029    -2.4891     1.1949 C.3     
  11 C11           -2.7915    -2.5110     0.0152 C.3     
  12 C12           -2.7708    -4.0408     0.0068 C.3     
  13 H13           -0.5459     1.8868    -0.8726 H       
  14 H14           -0.5289     1.8773     0.9072 H       
  15 H15            0.5123    -0.3556    -0.8948 H       
  16 H16            0.5293    -0.3651     0.8851 H       
  17 H17           -1.9435    -0.1821     0.9097 H       
  18 H18           -1.9605    -0.1726    -0.8702 H       
  19 H19            0.2968    -2.0990    -1.2116 H       
  20 H20           -0.7110    -3.5661    -1.2098 H       
  21 H21           -1.2530    -2.1152    -2.0869 H       
  22 H22           -1.2131    -2.1376     2.0917 H       
  23 H23           -0.6881    -3.5790     1.1889 H       
  24 H24            0.3197    -2.1118     1.1872 H       
  25 H25           -3.3017    -2.1594     0.9120 H       
  26 H26           -3.3187    -2.1499    -0.8678 H       
  27 H27           -2.2606    -4.3923    -0.8900 H       
  28 H28           -2.2436    -4.4019     0.8899 H       
  29 H29           -3.7934    -4.4181     0.0146 H       
@<TRIPOS>BOND
   1    1    2 1
   2    1    4 1
   3    1   13 1
   4    1   14 1
   5    2    3 1
   6    2   15 1
   7    2   16 1
   8    3    8 1
   9    3   17 1
  10    3   18 1
  11    4    5 ar
  12    4    6 ar
  13    4    7 ar
  14    8    9 1
  15    8   10 1
  16    8   11 1
  17    9   19 1
  18    9   20 1
  19    9   21 1
  20   10   22 1
  21   10   23 1
  22   10   24 1
  23   11   12 1
  24   11   25 1
  25   11   26 1
  26   12   27 1
  27   12   28 1
  28   12   29 1

#	End of record

