#	Name: ASD04590300
#	Creating user name:	WinNT
#	Creation time:	15. 06. 2019 20:50

#	Modifying user name:	WinNT
#	Modification time:	15. 06. 2019 20:50

#	Program:	/corina/corina34_cracker 3.40 0067  02.08.2006

@<TRIPOS>MOLECULE
ASD04590300
  44   48    0    0    0
SMALL
NO_CHARGES


@<TRIPOS>ATOM
   1 C1            -0.0167     1.3834     0.0096 C.ar    
   2 C2             0.0021    -0.0041     0.0020 C.ar    
   3 C3             1.1863    -0.6848    -0.0129 C.ar    
   4 C4             2.3948     0.0191    -0.0207 C.ar    
   5 C5             2.3756     1.4250    -0.0129 C.ar    
   6 C6             1.1624     2.0987     0.0022 C.ar    
   7 N7             3.6952    -0.3636    -0.0355 N.2     
   8 C8             4.4665     0.6967    -0.0375 C.2     
   9 N9             3.6970     1.8290    -0.0238 N.pl3   
  10 C10            5.9437     0.6731    -0.0526 C.2     
  11 C11            6.7565    -0.4840    -0.0678 C.2     
  12 C12            8.0504    -0.0799    -0.0785 C.2     
  13 N13            8.0626     1.2790    -0.0704 N.pl3   
  14 N14            6.7358     1.7273    -0.0600 N.2     
  15 N15            6.3044    -1.8133    -0.0708 N.am    
  16 C16            7.1923    -2.8271    -0.0860 C.2     
  17 C17            6.7179    -4.2217    -0.0891 C.ar    
  18 O18            8.3854    -2.5905    -0.0971 O.2     
  19 C19            6.0131    -6.2309    -1.2845 C.ar    
  20 C20            5.8149    -6.8742    -0.0514 C.ar    
  21 C21            6.0563    -6.2095     1.1134 C.ar    
  22 C22            6.5044    -4.8931     1.1083 C.ar    
  23 C23            6.4688    -4.8909    -1.3143 C.ar    
  24 N24            6.6569    -4.2774    -2.4832 N.ar    
  25 C25            6.4280    -4.8905    -3.6208 C.ar    
  26 C26            5.9790    -6.2074    -3.6643 C.ar    
  27 C27            5.7660    -6.8934    -2.5018 C.ar    
  28 C28            5.7275    -6.8754    -4.9915 C.3     
  29 Cl29           6.8007    -4.0806     2.6135 Cl      
  30 H30           -0.9614     1.9069     0.0169 H       
  31 H31           -0.9290    -0.5513     0.0083 H       
  32 H32            1.1893    -1.7648    -0.0184 H       
  33 H33            1.1417     3.1785     0.0079 H       
  34 H34            4.0192     2.7439    -0.0223 H       
  35 H35            8.9176    -0.7236    -0.0909 H       
  36 H36            8.8531     1.8410    -0.0751 H       
  37 H37            5.3529    -2.0020    -0.0620 H       
  38 H38            5.4669    -7.8963    -0.0265 H       
  39 H39            5.9000    -6.7140     2.0555 H       
  40 H40            6.5919    -4.3596    -4.5469 H       
  41 H41            5.4181    -7.9157    -2.5165 H       
  42 H42            6.6396    -7.3676    -5.3291 H       
  43 H43            4.9348    -7.6154    -4.8814 H       
  44 H44            5.4263    -6.1265    -5.7240 H       
@<TRIPOS>BOND
   1    1    2 ar
   2    1    6 ar
   3    1   30 1
   4    2    3 ar
   5    2   31 1
   6    3    4 ar
   7    3   32 1
   8    4    5 ar
   9    4    7 1
  10    5    6 ar
  11    5    9 1
  12    6   33 1
  13    7    8 2
  14    8    9 1
  15    8   10 1
  16    9   34 1
  17   10   11 1
  18   10   14 2
  19   11   12 2
  20   11   15 1
  21   12   13 1
  22   12   35 1
  23   13   14 1
  24   13   36 1
  25   15   16 am
  26   15   37 1
  27   16   17 1
  28   16   18 2
  29   17   22 ar
  30   17   23 ar
  31   19   20 ar
  32   19   23 ar
  33   19   27 ar
  34   20   21 ar
  35   20   38 1
  36   21   22 ar
  37   21   39 1
  38   22   29 1
  39   23   24 ar
  40   24   25 ar
  41   25   26 ar
  42   25   40 1
  43   26   27 ar
  44   26   28 1
  45   27   41 1
  46   28   42 1
  47   28   43 1
  48   28   44 1

#	End of record

