#	Name: ASD04930064
#	Creating user name:	WinNT
#	Creation time:	15. 06. 2019 20:56

#	Modifying user name:	WinNT
#	Modification time:	15. 06. 2019 20:56

#	Program:	/corina/corina34_cracker 3.40 0067  02.08.2006

@<TRIPOS>MOLECULE
ASD04930064
  60   61    0    0    0
SMALL
NO_CHARGES


@<TRIPOS>ATOM
   1 N1             1.4345     1.3613    -1.2660 N.am    
   2 C2             1.4486     0.0177    -1.2700 C.2     
   3 C3             1.2742    -0.7385    -0.0307 C.2     
   4 C4             1.0917    -0.0442     1.1675 C.2     
   5 C5             1.0833     1.4218     1.1269 C.ar    
   6 C6             0.9039     2.1649     2.2998 C.ar    
   7 C7             0.8990     3.5412     2.2416 C.ar    
   8 C8             1.0706     4.1924     1.0254 C.ar    
   9 C9             1.2481     3.4741    -0.1364 C.ar    
  10 C10            1.2567     2.0823    -0.1019 C.ar    
  11 C11            1.2903    -2.2065    -0.0457 C.2     
  12 O12            2.3462    -2.8023    -0.1486 O.2     
  13 N13            0.1355    -2.8941     0.0547 N.am    
  14 N14            0.1381    -4.2896    -0.0693 N.am    
  15 O15            1.6085    -0.5784    -2.3203 O.2     
  16 O16            0.9268    -0.7053     2.3322 O.3     
  17 C17           -1.0167    -4.9772     0.0310 C.2     
  18 C18           -1.0139    -6.4783    -0.1024 C.3     
  19 C19           -2.4417    -7.0065     0.0502 C.3     
  20 C20           -2.4389    -8.5305    -0.0852 C.3     
  21 C21           -3.8667    -9.0587     0.0674 C.3     
  22 C22           -3.8638   -10.5827    -0.0681 C.3     
  23 C23           -5.2916   -11.1109     0.0845 C.3     
  24 C24           -5.2888   -12.6349    -0.0509 C.3     
  25 C25           -6.7166   -13.1632     0.1017 C.3     
  26 C26           -6.7137   -14.6872    -0.0338 C.3     
  27 C27           -8.1415   -15.2154     0.1188 C.3     
  28 C28           -8.1387   -16.7394    -0.0166 C.3     
  29 O29           -2.0582    -4.3879     0.2287 O.2     
  30 F30            0.7262     4.2615     3.3715 F       
  31 H31            1.5563     1.8374    -2.1023 H       
  32 H32            0.7697     1.6615     3.2458 H       
  33 H33            1.0644     5.2718     0.9911 H       
  34 H34            1.3804     3.9912    -1.0753 H       
  35 H35           -0.6975    -2.4228     0.2128 H       
  36 H36            0.9710    -4.7609    -0.2274 H       
  37 H37            0.8695    -1.6656     2.2347 H       
  38 H38           -0.6270    -6.7551    -1.0830 H       
  39 H39           -0.3817    -6.9108     0.6731 H       
  40 H40           -2.8287    -6.7296     1.0309 H       
  41 H41           -3.0740    -6.5740    -0.7252 H       
  42 H42           -2.0519    -8.8074    -1.0659 H       
  43 H43           -1.8067    -8.9630     0.6902 H       
  44 H44           -4.2537    -8.7818     1.0480 H       
  45 H45           -4.4989    -8.6262    -0.7081 H       
  46 H46           -3.4769   -10.8596    -1.0487 H       
  47 H47           -3.2316   -11.0152     0.7074 H       
  48 H48           -5.6786   -10.8340     1.0652 H       
  49 H49           -5.9239   -10.6784    -0.6909 H       
  50 H50           -4.9018   -12.9118    -1.0316 H       
  51 H51           -4.6566   -13.0674     0.7245 H       
  52 H52           -7.1036   -12.8863     1.0823 H       
  53 H53           -7.3488   -12.7307    -0.6738 H       
  54 H54           -6.3268   -14.9640    -1.0144 H       
  55 H55           -6.0815   -15.1197     0.7417 H       
  56 H56           -8.5285   -14.9385     1.0995 H       
  57 H57           -8.7738   -14.7829    -0.6566 H       
  58 H58           -7.5065   -17.1719     0.7588 H       
  59 H59           -9.1559   -17.1157     0.0921 H       
  60 H60           -7.7517   -17.0163    -0.9973 H       
@<TRIPOS>BOND
   1    1    2 am
   2    1   10 1
   3    1   31 1
   4    2    3 1
   5    2   15 2
   6    3    4 2
   7    3   11 1
   8    4    5 1
   9    4   16 1
  10    5    6 ar
  11    5   10 ar
  12    6    7 ar
  13    6   32 1
  14    7    8 ar
  15    7   30 1
  16    8    9 ar
  17    8   33 1
  18    9   10 ar
  19    9   34 1
  20   11   12 2
  21   11   13 am
  22   13   14 1
  23   13   35 1
  24   14   17 am
  25   14   36 1
  26   16   37 1
  27   17   18 1
  28   17   29 2
  29   18   19 1
  30   18   38 1
  31   18   39 1
  32   19   20 1
  33   19   40 1
  34   19   41 1
  35   20   21 1
  36   20   42 1
  37   20   43 1
  38   21   22 1
  39   21   44 1
  40   21   45 1
  41   22   23 1
  42   22   46 1
  43   22   47 1
  44   23   24 1
  45   23   48 1
  46   23   49 1
  47   24   25 1
  48   24   50 1
  49   24   51 1
  50   25   26 1
  51   25   52 1
  52   25   53 1
  53   26   27 1
  54   26   54 1
  55   26   55 1
  56   27   28 1
  57   27   56 1
  58   27   57 1
  59   28   58 1
  60   28   59 1
  61   28   60 1

#	End of record

