#	Name: ASD05313094
#	Creating user name:	WinNT
#	Creation time:	15. 06. 2019 20:58

#	Modifying user name:	WinNT
#	Modification time:	15. 06. 2019 20:58

#	Program:	/corina/corina34_cracker 3.40 0067  02.08.2006

@<TRIPOS>MOLECULE
ASD05313094
  35   38    0    0    0
SMALL
NO_CHARGES


@<TRIPOS>ATOM
   1 C1            -0.0735     0.8219     1.0153 C.2     
   2 C2             0.1122    -0.6152     0.5909 C.3     
   3 N3             0.9379     1.7390     1.0413 N.pl3   
   4 N4             1.4564    -0.7155    -0.0086 N.am    
   5 C5             2.5712    -0.0362     0.6688 C.3     
   6 C6             2.3239     1.4771     0.6581 C.3     
   7 N7            -0.8981     2.6496     1.6931 N.2     
   8 N8            -1.1544     1.4176     1.4147 N.2     
   9 C9             0.3790     2.8993     1.4819 C.2     
  10 S10            1.6331     6.5940     2.2251 S.3     
  11 C11            2.8515     5.5325     1.6688 C.2     
  12 N12            2.3655     4.3604     1.4524 N.2     
  13 C13            1.0710     4.1894     1.6867 C.2     
  14 C14            0.4416     5.3000     2.1286 C.2     
  15 C15            1.6574    -1.4108    -1.1455 C.2     
  16 O16            2.7499    -1.4012    -1.6788 O.2     
  17 C17            0.5509    -2.1843    -1.7432 C.ar    
  18 C18            0.3195    -2.1282    -3.1209 C.ar    
  19 C19           -0.7160    -2.8539    -3.6734 C.ar    
  20 C20           -1.5252    -3.6367    -2.8649 C.ar    
  21 C21           -1.2999    -3.6951    -1.4978 C.ar    
  22 C22           -0.2652    -2.9793    -0.9354 C.ar    
  23 F23           -2.5377    -4.3452    -3.4108 F       
  24 Cl24           1.3322    -1.1476    -4.1340 Cl      
  25 H25            0.0416    -1.2715     1.4583 H       
  26 H26           -0.6447    -0.8867    -0.1450 H       
  27 H27            2.6388    -0.3865     1.6987 H       
  28 H28            3.5025    -0.2565     0.1470 H       
  29 H29            2.5053     1.8686    -0.3429 H       
  30 H30            2.9956     1.9612     1.3670 H       
  31 H31            3.8853     5.8070     1.5192 H       
  32 H32           -0.6060     5.3802     2.3788 H       
  33 H33           -0.8965    -2.8115    -4.7373 H       
  34 H34           -1.9343    -4.3063    -0.8729 H       
  35 H35           -0.0882    -3.0298     0.1288 H       
@<TRIPOS>BOND
   1    1    2 1
   2    1    3 1
   3    1    8 2
   4    2    4 1
   5    2   25 1
   6    2   26 1
   7    3    6 1
   8    3    9 1
   9    4    5 1
  10    4   15 am
  11    5    6 1
  12    5   27 1
  13    5   28 1
  14    6   29 1
  15    6   30 1
  16    7    8 1
  17    7    9 2
  18    9   13 1
  19   10   11 1
  20   10   14 1
  21   11   12 2
  22   11   31 1
  23   12   13 1
  24   13   14 2
  25   14   32 1
  26   15   16 2
  27   15   17 1
  28   17   18 ar
  29   17   22 ar
  30   18   19 ar
  31   18   24 1
  32   19   20 ar
  33   19   33 1
  34   20   21 ar
  35   20   23 1
  36   21   22 ar
  37   21   34 1
  38   22   35 1

#	End of record

