#	Name: ASD00510011
#	Creating user name:	WinNT
#	Creation time:	15. 06. 2019 18:36

#	Modifying user name:	WinNT
#	Modification time:	15. 06. 2019 18:36

#	Program:	/corina/corina34_cracker 3.40 0067  02.08.2006

@<TRIPOS>MOLECULE
ASD00510011
  42   45    0    0    0
SMALL
NO_CHARGES


@<TRIPOS>ATOM
   1 C1            -0.0169     1.3953     0.0097 C.ar    
   2 C2             0.0021    -0.0041     0.0020 C.ar    
   3 C3             1.1964    -0.6619    -0.0129 C.ar    
   4 C4             2.3990     0.0401    -0.0205 C.ar    
   5 C5             2.4162     1.4019    -0.0134 C.ar    
   6 C6             1.2039     2.1123     0.0019 C.ar    
   7 C7             1.1826     3.5187     0.0085 C.ar    
   8 C8             0.0049     4.1970     0.0224 C.ar    
   9 C9            -1.2230     3.5368     0.0310 C.ar    
  10 C10           -1.2750     2.1411     0.0196 C.ar    
  11 N11           -2.4688     1.4901     0.0223 N.2     
  12 N12           -3.5699     2.1621     0.0311 N.2     
  13 O13           -2.3746     4.2545     0.0458 O.3     
  14 S14            2.7013     4.4121    -0.0007 S.o2    
  15 O15            2.9812     4.7416     1.3529 O.2     
  16 O16            3.5959     3.6743    -0.8220 O.2     
  17 O17            2.4449     5.7290    -0.7194 O.3     
  18 C18           -4.7665     1.5096     0.0338 C.ar    
  19 C19           -7.1930     0.1366     0.0399 C.ar    
  20 C20           -5.9746    -0.5697     0.0354 C.ar    
  21 C21           -4.7964     0.1020     0.0328 C.ar    
  22 C22           -5.9542     2.2395     0.0433 C.ar    
  23 C23           -7.1844     1.5538     0.0464 C.ar    
  24 C24           -8.4039     2.2514     0.0503 C.ar    
  25 C25           -9.5765     1.5592     0.0479 C.ar    
  26 C26           -9.5854     0.1662     0.0416 C.ar    
  27 C27           -8.4223    -0.5424     0.0376 C.ar    
  28 O28           -5.9253     3.5953     0.0499 O.3     
  29 H29           -0.9240    -0.5598     0.0082 H       
  30 H30            1.2098    -1.7418    -0.0184 H       
  31 H31            3.3321    -0.5036    -0.0319 H       
  32 H32            3.3566     1.9329    -0.0191 H       
  33 H33            0.0207     5.2769     0.0271 H       
  34 H34           -2.7170     4.4669    -0.8333 H       
  35 H35            3.2219     6.3014    -0.7807 H       
  36 H36           -5.9785    -1.6497     0.0305 H       
  37 H37           -3.8684    -0.4505     0.0295 H       
  38 H38           -8.4112     3.3314     0.0556 H       
  39 H39          -10.5127     2.0977     0.0513 H       
  40 H40          -10.5287    -0.3597     0.0402 H       
  41 H41           -8.4453    -1.6222     0.0324 H       
  42 H42           -5.9213     3.9929    -0.8316 H       
@<TRIPOS>BOND
   1    1    2 ar
   2    1    6 ar
   3    1   10 ar
   4    2    3 ar
   5    2   29 1
   6    3    4 ar
   7    3   30 1
   8    4    5 ar
   9    4   31 1
  10    5    6 ar
  11    5   32 1
  12    6    7 ar
  13    7    8 ar
  14    7   14 1
  15    8    9 ar
  16    8   33 1
  17    9   10 ar
  18    9   13 1
  19   10   11 1
  20   11   12 2
  21   12   18 1
  22   13   34 1
  23   14   15 2
  24   14   16 2
  25   14   17 1
  26   17   35 1
  27   18   22 ar
  28   18   21 ar
  29   19   20 ar
  30   19   23 ar
  31   19   27 ar
  32   20   21 ar
  33   20   36 1
  34   21   37 1
  35   22   23 ar
  36   22   28 1
  37   23   24 ar
  38   24   25 ar
  39   24   38 1
  40   25   26 ar
  41   25   39 1
  42   26   27 ar
  43   26   40 1
  44   27   41 1
  45   28   42 1

#	End of record

