#	Name: ASD01152522
#	Creating user name:	WinNT
#	Creation time:	15. 06. 2019 19:06

#	Modifying user name:	WinNT
#	Modification time:	15. 06. 2019 19:06

#	Program:	/corina/corina34_cracker 3.40 0067  02.08.2006

@<TRIPOS>MOLECULE
ASD01152522
  54   56    0    0    0
SMALL
NO_CHARGES


@<TRIPOS>ATOM
   1 C1            -0.6813     1.2112     0.7965 C.2     
   2 N2            -0.4280    -0.0411     0.5246 N.2     
   3 N3            -1.4013    -1.0305     0.6630 N.am    
   4 C4            -2.6968    -0.7451     0.8743 C.2     
   5 C5            -3.1755     0.6874     0.8488 C.3     
   6 C6            -2.0205     1.5681     1.2886 C.2     
   7 C7            -3.6098     1.0633    -0.5694 C.3     
   8 O8            -2.1970     2.5289     2.0090 O.2     
   9 C9            -1.0131    -2.3729     0.5781 C.ar    
  10 O10           -3.4856    -1.6414     1.0860 O.2     
  11 C11           -4.1917     2.4534    -0.5646 C.ar    
  12 C12            0.0723    -2.8297     1.3128 C.ar    
  13 C13           -1.7176    -3.2499    -0.2373 C.ar    
  14 C14           -1.3360    -4.5750    -0.3217 C.ar    
  15 C15           -0.2517    -5.0329     0.4054 C.ar    
  16 C16            0.4541    -4.1603     1.2269 C.ar    
  17 C17           -5.5211     2.6491    -0.2128 C.ar    
  18 C18           -3.4020     3.5345    -0.9046 C.ar    
  19 C19           -3.9344     4.8103    -0.9003 C.ar    
  20 C20           -5.2600     5.0090    -0.5548 C.ar    
  21 C21           -6.0540     3.9320    -0.2091 C.ar    
  22 Cl22          -5.9240     6.6130    -0.5496 Cl      
  23 F23            0.1188    -6.3294     0.3211 F       
  24 N24           -6.3205     1.5583     0.1362 N.3     
  25 C25           -6.8721     1.7208     1.4879 C.3     
  26 C26           -7.3915     1.3542    -0.8484 C.3     
  27 N27            1.5490    -4.6246     1.9664 N.am    
  28 C28            1.9739    -3.9373     3.0451 C.2     
  29 O29            1.3587    -2.9632     3.4245 O.2     
  30 C30            3.2133    -4.3790     3.7798 C.3     
  31 O31            0.2744     2.1634     0.6336 O.3     
  32 C32            1.5493     1.7282     0.1568 C.3     
  33 H33           -4.0125     0.8092     1.5363 H       
  34 H34           -2.7462     1.0332    -1.2338 H       
  35 H35           -4.3618     0.3558    -0.9186 H       
  36 H36            0.6187    -2.1501     1.9500 H       
  37 H37           -2.5648    -2.8954    -0.8055 H       
  38 H38           -1.8853    -5.2547    -0.9563 H       
  39 H39           -2.3671     3.3829    -1.1739 H       
  40 H40           -3.3146     5.6537    -1.1665 H       
  41 H41           -7.0882     4.0871     0.0604 H       
  42 H42           -7.4790     2.6254     1.5264 H       
  43 H43           -7.4905     0.8577     1.7343 H       
  44 H44           -6.0561     1.8000     2.2062 H       
  45 H45           -6.9570     1.2588    -1.8434 H       
  46 H46           -7.9418     0.4457    -0.6036 H       
  47 H47           -8.0705     2.2067    -0.8286 H       
  48 H48            2.0016    -5.4409     1.7023 H       
  49 H49            4.0656    -4.3565     3.1008 H       
  50 H50            3.3982    -3.7064     4.6174 H       
  51 H51            3.0725    -5.3935     4.1527 H       
  52 H52            1.9714     1.0062     0.8559 H       
  53 H53            1.4314     1.2611    -0.8210 H       
  54 H54            2.2174     2.5852     0.0720 H       
@<TRIPOS>BOND
   1    1    2 2
   2    1   31 1
   3    1    6 1
   4    2    3 1
   5    3    4 am
   6    3    9 1
   7    4    5 1
   8    4   10 2
   9    5    6 1
  10    5    7 1
  11    5   33 1
  12    6    8 2
  13    7   11 1
  14    7   34 1
  15    7   35 1
  16    9   12 ar
  17    9   13 ar
  18   11   17 ar
  19   11   18 ar
  20   12   16 ar
  21   12   36 1
  22   13   14 ar
  23   13   37 1
  24   14   15 ar
  25   14   38 1
  26   15   16 ar
  27   15   23 1
  28   16   27 1
  29   17   24 1
  30   17   21 ar
  31   18   19 ar
  32   18   39 1
  33   19   20 ar
  34   19   40 1
  35   20   21 ar
  36   20   22 1
  37   21   41 1
  38   24   25 1
  39   24   26 1
  40   25   42 1
  41   25   43 1
  42   25   44 1
  43   26   45 1
  44   26   46 1
  45   26   47 1
  46   27   28 am
  47   27   48 1
  48   28   29 2
  49   28   30 1
  50   30   49 1
  51   30   50 1
  52   30   51 1
  53   31   32 1
  54   32   52 1
  55   32   53 1
  56   32   54 1

#	End of record

