#	Name: ASD03091684
#	Creating user name:	WinNT
#	Creation time:	15. 06. 2019 20:31

#	Modifying user name:	WinNT
#	Modification time:	15. 06. 2019 20:31

#	Program:	/corina/corina34_cracker 3.40 0067  02.08.2006

@<TRIPOS>MOLECULE
ASD03091684
  47   49    0    0    0
SMALL
NO_CHARGES


@<TRIPOS>ATOM
   1 Cl1            0.0000     0.0000     0.0000 Cl      
   2 H2             0.0000     1.3700     0.0000 H       
   3 C3            14.5220    10.3301     6.5459 C.ar    
   4 C4            14.5370     8.9290     6.5360 C.ar    
   5 C5            15.7552     8.2449     6.5153 C.ar    
   6 C6            16.9443     8.9469     6.5045 C.ar    
   7 C7            16.9316    10.3431     6.5147 C.ar    
   8 C8            15.7572    11.0236     6.5341 C.ar    
   9 S9            12.8850     8.3220     6.5546 S.3     
  10 C10           12.2338     9.9514     6.5747 C.2     
  11 C11           13.2204    10.8543     6.5726 C.2     
  12 C12           10.8021    10.2786     6.5967 C.2     
  13 O13           10.4439    11.4413     6.6091 O.2     
  14 N14            9.8852     9.2908     6.6030 N.am    
  15 N15            6.9552     8.8751     8.4107 N.3     
  16 C16            8.0049     9.8448     8.0702 C.3     
  17 C17            8.4572     9.6172     6.6249 C.3     
  18 C18            7.6545     8.4519     6.0328 C.3     
  19 C19            6.1628     8.8039     6.0950 C.3     
  20 C20            5.7740     9.0534     7.5549 C.3     
  21 C21            7.4615     7.4982     8.3280 C.3     
  22 C22            7.8989     7.2038     6.8904 C.3     
  23 N23           18.1611     8.2596     6.4837 N.am    
  24 C24           19.2104     8.7672     5.8072 C.2     
  25 C25           20.5546     8.0901     5.8827 C.3     
  26 O26           19.0728     9.7690     5.1375 O.2     
  27 H27           15.7669     7.1650     6.5081 H       
  28 H28           17.8648    10.8866     6.5065 H       
  29 H29           15.7646    12.1036     6.5410 H       
  30 H30           13.0280    11.9170     6.5833 H       
  31 H31           10.1708     8.3639     6.5931 H       
  32 H32            7.6127    10.8566     8.1734 H       
  33 H33            8.8533     9.7131     8.7417 H       
  34 H34            8.2776    10.5190     6.0396 H       
  35 H35            7.9554     8.2761     5.0000 H       
  36 H36            5.9749     9.7030     5.5082 H       
  37 H37            5.5754     7.9764     5.6970 H       
  38 H38            5.0000     8.3454     7.8513 H       
  39 H39            5.3973    10.0706     7.6622 H       
  40 H40            8.3134     7.3830     8.9982 H       
  41 H41            6.6736     6.8029     8.6180 H       
  42 H42            7.3185     6.3700     6.4955 H       
  43 H43            8.9594     6.9525     6.8755 H       
  44 H44           18.2504     7.4172     6.9563 H       
  45 H45           20.6334     7.3492     5.0872 H       
  46 H46           21.3430     8.8337     5.7662 H       
  47 H47           20.6595     7.5977     6.8495 H       
@<TRIPOS>BOND
   1    1    2 1
   2    3    4 ar
   3    3    8 ar
   4    3   11 1
   5    4    5 ar
   6    4    9 1
   7    5    6 ar
   8    5   27 1
   9    6    7 ar
  10    6   23 1
  11    7    8 ar
  12    7   28 1
  13    8   29 1
  14    9   10 1
  15   10   11 2
  16   10   12 1
  17   11   30 1
  18   12   13 2
  19   12   14 am
  20   14   17 1
  21   14   31 1
  22   15   16 1
  23   15   20 1
  24   15   21 1
  25   16   17 1
  26   16   32 1
  27   16   33 1
  28   17   18 1
  29   17   34 1
  30   18   19 1
  31   18   22 1
  32   18   35 1
  33   19   20 1
  34   19   36 1
  35   19   37 1
  36   20   38 1
  37   20   39 1
  38   21   22 1
  39   21   40 1
  40   21   41 1
  41   22   42 1
  42   22   43 1
  43   23   24 am
  44   23   44 1
  45   24   25 1
  46   24   26 2
  47   25   45 1
  48   25   46 1
  49   25   47 1

#	End of record

