#	Name: ASD01915765
#	Creating user name:	WinNT
#	Creation time:	15. 06. 2019 20:06

#	Modifying user name:	WinNT
#	Modification time:	15. 06. 2019 20:06

#	Program:	/corina/corina34_cracker 3.40 0067  02.08.2006

@<TRIPOS>MOLECULE
ASD01915765
  44   47    0    0    0
SMALL
NO_CHARGES


@<TRIPOS>ATOM
   1 C1            -0.0491     1.2315     0.2133 C.2     
   2 N2            -0.0635    -0.1180    -0.0601 N.pl3   
   3 C3            -1.3247    -0.8336    -0.2879 C.3     
   4 C4            -2.3452     0.1241    -0.9008 C.3     
   5 N5            -2.4089     1.4012    -0.1986 N.am    
   6 C6            -1.2897     2.0206     0.2484 C.2     
   7 C7             1.2568     1.5876     0.4009 C.2     
   8 C8             1.9856     0.4050     0.2151 C.2     
   9 N9             1.1345    -0.5561    -0.0587 N.2     
  10 C10            3.4827     0.2622     0.3120 C.3     
  11 O11            4.0628     1.5297     0.6265 O.3     
  12 C12            5.4153     1.5754     0.7506 C.ar    
  13 O13           -1.3100     3.1663     0.6567 O.2     
  14 C14            6.0450     2.7736     1.0548 C.ar    
  15 C15            6.1682     0.4229     0.5790 C.ar    
  16 C16            7.5429     0.4720     0.7056 C.ar    
  17 C17            8.1686     1.6686     1.0032 C.ar    
  18 C18            7.4200     2.8175     1.1804 C.ar    
  19 C19           -3.6547     2.0006     0.0183 C.ar    
  20 C20           -3.9802     3.1833    -0.6327 C.ar    
  21 C21           -4.5695     1.4105     0.8806 C.ar    
  22 C22           -5.7986     2.0034     1.0929 C.ar    
  23 C23           -6.1191     3.1855     0.4467 C.ar    
  24 C24           -5.2104     3.7728    -0.4175 C.ar    
  25 F25           -7.3220     3.7639     0.6558 F       
  26 C26           -1.9673     0.3810    -2.3609 C.3     
  27 F27           -2.8943     1.2573    -2.9353 F       
  28 H28           -1.1524    -1.6665    -0.9695 H       
  29 H29           -1.7050    -1.2119     0.6609 H       
  30 H30           -3.3293    -0.3437    -0.8709 H       
  31 H31            1.6433     2.5673     0.6400 H       
  32 H32            3.7293    -0.4547     1.0952 H       
  33 H33            3.8764    -0.0912    -0.6410 H       
  34 H34            5.4608     3.6714     1.1929 H       
  35 H35            5.6799    -0.5121     0.3469 H       
  36 H36            8.1294    -0.4250     0.5725 H       
  37 H37            9.2435     1.7049     1.1018 H       
  38 H38            7.9111     3.7510     1.4124 H       
  39 H39           -3.2716     3.6419    -1.3066 H       
  40 H40           -4.3201     0.4884     1.3845 H       
  41 H41           -6.5105     1.5447     1.7631 H       
  42 H42           -5.4623     4.6948    -0.9205 H       
  43 H43           -0.9724     0.8238    -2.4062 H       
  44 H44           -1.9708    -0.5615    -2.9084 H       
@<TRIPOS>BOND
   1    1    2 1
   2    1    7 2
   3    1    6 1
   4    2    3 1
   5    2    9 1
   6    3    4 1
   7    3   28 1
   8    3   29 1
   9    4    5 1
  10    4   26 1
  11    4   30 1
  12    5    6 am
  13    5   19 1
  14    6   13 2
  15    7    8 1
  16    7   31 1
  17    8    9 2
  18    8   10 1
  19   10   11 1
  20   10   32 1
  21   10   33 1
  22   11   12 1
  23   12   14 ar
  24   12   15 ar
  25   14   18 ar
  26   14   34 1
  27   15   16 ar
  28   15   35 1
  29   16   17 ar
  30   16   36 1
  31   17   18 ar
  32   17   37 1
  33   18   38 1
  34   19   21 ar
  35   19   20 ar
  36   20   24 ar
  37   20   39 1
  38   21   22 ar
  39   21   40 1
  40   22   23 ar
  41   22   41 1
  42   23   24 ar
  43   23   25 1
  44   24   42 1
  45   26   27 1
  46   26   43 1
  47   26   44 1

#	End of record

