#	Name: ASD01008006
#	Creating user name:	WinNT
#	Creation time:	15. 06. 2019 18:56

#	Modifying user name:	WinNT
#	Modification time:	15. 06. 2019 18:56

#	Program:	/corina/corina34_cracker 3.40 0067  02.08.2006

@<TRIPOS>MOLECULE
ASD01008006
  39   41    0    0    0
SMALL
NO_CHARGES


@<TRIPOS>ATOM
   1 N1            -0.0161     1.3330     0.0094 N.am    
   2 C2             0.0021    -0.0041     0.0020 C.2     
   3 N3             1.1502    -0.7097    -0.0130 N.am    
   4 C4             2.4229     0.0316    -0.0193 C.3     
   5 C5             2.3341     1.5439    -0.0080 C.2     
   6 C6             3.5055     2.3089    -0.0072 C.2     
   7 C7             3.4423     3.8142     0.0178 C.3     
   8 C8             2.1530     4.2445     0.7251 C.3     
   9 C9             0.9601     3.6132     0.0036 C.3     
  10 C10            1.1064     2.1116     0.0028 C.2     
  11 O11            4.5859     1.7532    -0.0265 O.2     
  12 S12           -1.4864    -0.8498     0.0126 S.2     
  13 C13            2.1827     3.7696     2.1792 C.3     
  14 C14            2.0293     5.7689     0.6831 C.3     
  15 C15            3.1946    -0.3798    -1.2466 C.ar    
  16 C16            4.5611    -0.5693    -1.1715 C.ar    
  17 C17            5.2708    -0.9479    -2.3015 C.ar    
  18 C18            4.6060    -1.1354    -3.5049 C.ar    
  19 C19            3.2398    -0.9447    -3.5748 C.ar    
  20 C20            2.5337    -0.5727    -2.4454 C.ar    
  21 O21            6.6150    -1.1345    -2.2303 O.3     
  22 H22           -0.8785     1.7770     0.0158 H       
  23 H23            1.1386    -1.6796    -0.0191 H       
  24 H24            2.9969    -0.2781     0.8541 H       
  25 H25            4.3036     4.2069     0.5581 H       
  26 H26            3.4439     4.1968    -1.0029 H       
  27 H27            0.0387     3.8875     0.5171 H       
  28 H28            0.9243     3.9753    -1.0238 H       
  29 H29            3.0397     4.2108     2.6880 H       
  30 H30            1.2649     4.0766     2.6805 H       
  31 H31            2.2648     2.6830     2.2049 H       
  32 H32            2.0024     6.1029    -0.3541 H       
  33 H33            1.1117     6.0730     1.1866 H       
  34 H34            2.8858     6.2169     1.1869 H       
  35 H35            5.0764    -0.4224    -0.2337 H       
  36 H36            5.1564    -1.4299    -4.3862 H       
  37 H37            2.7219    -1.0901    -4.5113 H       
  38 H38            1.4648    -0.4287    -2.5010 H       
  39 H39            6.8753    -2.0384    -2.0058 H       
@<TRIPOS>BOND
   1    1    2 am
   2    1   10 1
   3    1   22 1
   4    2    3 am
   5    2   12 2
   6    3    4 1
   7    3   23 1
   8    4    5 1
   9    4   15 1
  10    4   24 1
  11    5    6 1
  12    5   10 2
  13    6    7 1
  14    6   11 2
  15    7    8 1
  16    7   25 1
  17    7   26 1
  18    8    9 1
  19    8   13 1
  20    8   14 1
  21    9   10 1
  22    9   27 1
  23    9   28 1
  24   13   29 1
  25   13   30 1
  26   13   31 1
  27   14   32 1
  28   14   33 1
  29   14   34 1
  30   15   16 ar
  31   15   20 ar
  32   16   17 ar
  33   16   35 1
  34   17   18 ar
  35   17   21 1
  36   18   19 ar
  37   18   36 1
  38   19   20 ar
  39   19   37 1
  40   20   38 1
  41   21   39 1

#	End of record

