#	Name: ASD01900264
#	Creating user name:	WinNT
#	Creation time:	15. 06. 2019 19:51

#	Modifying user name:	WinNT
#	Modification time:	15. 06. 2019 19:51

#	Program:	/corina/corina34_cracker 3.40 0067  02.08.2006

@<TRIPOS>MOLECULE
ASD01900264
  35   37    0    0    0
SMALL
NO_CHARGES


@<TRIPOS>ATOM
   1 S1            -0.0191     1.5598     0.0106 S.3     
   2 N2             0.0021    -0.0041     0.0020 N.2     
   3 N3             1.2060    -0.4209    -0.0117 N.2     
   4 C4             2.1829     0.4791    -0.0162 C.2     
   5 C5             1.6892     1.7676    -0.0046 C.2     
   6 C6             3.6183     0.1428    -0.0313 C.2     
   7 O7             4.4508     1.0296    -0.0340 O.2     
   8 N8             4.0081    -1.1474    -0.0420 N.am    
   9 N9             7.2724    -2.5916    -0.0808 N.am    
  10 C10            5.9099    -2.7125    -0.0681 C.2     
  11 C11            5.3778    -1.4684    -0.0563 C.2     
  12 C12            6.4524    -0.5516    -0.0620 C.2     
  13 C13            7.5951    -1.2673    -0.0769 C.2     
  14 S14            8.3520    -3.8473    -0.0917 S.o2    
  15 O15            9.5240    -3.3070     0.5029 O.2     
  16 O16            7.6482    -4.9199     0.5194 O.2     
  17 C17            8.6306    -4.1894    -1.8512 C.3     
  18 C18            9.6080    -5.3276    -1.9930 C.ar    
  19 C19            9.1483    -6.6315    -2.0502 C.ar    
  20 C20           10.0461    -7.6757    -2.1808 C.ar    
  21 C21           11.4019    -7.4162    -2.2542 C.ar    
  22 C22           11.8605    -6.1136    -2.1967 C.ar    
  23 C23           10.9633    -5.0690    -2.0718 C.ar    
  24 Cl24           7.4456    -6.9567    -1.9573 Cl      
  25 H25            2.2463     2.6928    -0.0052 H       
  26 H26            3.3442    -1.8546    -0.0398 H       
  27 H27            5.3554    -3.6393    -0.0679 H       
  28 H28            6.3733     0.5255    -0.0556 H       
  29 H29            8.5955    -0.8605    -0.0840 H       
  30 H30            7.6860    -4.4607    -2.3226 H       
  31 H31            9.0357    -3.3003    -2.3345 H       
  32 H32            9.6879    -8.6936    -2.2251 H       
  33 H33           12.1029    -8.2314    -2.3562 H       
  34 H34           12.9199    -5.9113    -2.2533 H       
  35 H35           11.3219    -4.0511    -2.0313 H       
@<TRIPOS>BOND
   1    1    2 1
   2    1    5 1
   3    2    3 2
   4    3    4 1
   5    4    5 2
   6    4    6 1
   7    5   25 1
   8    6    7 2
   9    6    8 am
  10    8   11 1
  11    8   26 1
  12    9   10 1
  13    9   13 1
  14    9   14 am
  15   10   11 2
  16   10   27 1
  17   11   12 1
  18   12   13 2
  19   12   28 1
  20   13   29 1
  21   14   15 2
  22   14   16 2
  23   14   17 1
  24   17   18 1
  25   17   30 1
  26   17   31 1
  27   18   19 ar
  28   18   23 ar
  29   19   20 ar
  30   19   24 1
  31   20   21 ar
  32   20   32 1
  33   21   22 ar
  34   21   33 1
  35   22   23 ar
  36   22   34 1
  37   23   35 1

#	End of record

