#	Name: ASD01915070
#	Creating user name:	WinNT
#	Creation time:	15. 06. 2019 20:04

#	Modifying user name:	WinNT
#	Modification time:	15. 06. 2019 20:04

#	Program:	/corina/corina34_cracker 3.40 0067  02.08.2006

@<TRIPOS>MOLECULE
ASD01915070
  38   41    0    0    0
SMALL
NO_CHARGES


@<TRIPOS>ATOM
   1 C1            -0.0169     1.3916     0.0097 C.ar    
   2 C2             0.0021    -0.0041     0.0020 C.ar    
   3 N3            -1.1434    -0.6913     0.0092 N.ar    
   4 C4            -2.3154    -0.0967     0.0236 C.ar    
   5 C5            -2.4139     1.2894     0.0320 C.ar    
   6 C6            -1.2658     2.0484     0.0306 C.ar    
   7 C7             1.3289     1.9579    -0.0001 C.2     
   8 C8             2.3058     1.0547    -0.0143 C.2     
   9 S9             1.6661    -0.5768    -0.0169 S.3     
  10 C10            1.5855     3.4178     0.0045 C.ar    
  11 C11            1.2152     4.1895     1.1051 C.ar    
  12 S12            4.0232     1.4486    -0.0295 S.o2    
  13 O13            4.6881     0.3229    -0.5861 O.2     
  14 O14            4.1295     2.7591    -0.5686 O.2     
  15 C15            4.5483     1.5570     1.6490 C.ar    
  16 C16            5.0217     0.4309     2.2975 C.ar    
  17 C17            4.4914     2.7662     2.3110 C.ar    
  18 C18            4.9079     2.8519     3.6408 C.ar    
  19 C19            5.3802     1.7113     4.2931 C.ar    
  20 C20            5.4372     0.5075     3.6176 C.ar    
  21 C21            1.4561     5.5480     1.1047 C.ar    
  22 C22            2.0645     6.1456     0.0128 C.ar    
  23 C23            2.4343     5.3830    -1.0831 C.ar    
  24 C24            2.2032     4.0227    -1.0894 C.ar    
  25 F25            5.8937    -0.5977     4.2462 F       
  26 F26            2.2975     7.4764     0.0166 F       
  27 F27           -3.4409    -0.8441     0.0299 F       
  28 C28            4.8515     4.1044     4.3326 C.1     
  29 N29            4.8067     5.0980     4.8815 N.1     
  30 H30           -3.3826     1.7668     0.0439 H       
  31 H31           -1.3197     3.1271     0.0370 H       
  32 H32            0.7402     3.7247     1.9564 H       
  33 H33            5.0676    -0.5122     1.7732 H       
  34 H34            4.1255     3.6452     1.8012 H       
  35 H35            5.7040     1.7709     5.3217 H       
  36 H36            1.1695     6.1467     1.9567 H       
  37 H37            2.9080     5.8533    -1.9321 H       
  38 H38            2.4921     3.4290    -1.9440 H       
@<TRIPOS>BOND
   1    1    2 ar
   2    1    7 1
   3    1    6 ar
   4    2    3 ar
   5    2    9 1
   6    3    4 ar
   7    4    5 ar
   8    4   27 1
   9    5    6 ar
  10    5   30 1
  11    6   31 1
  12    7    8 2
  13    7   10 1
  14    8    9 1
  15    8   12 1
  16   10   11 ar
  17   10   24 ar
  18   11   21 ar
  19   11   32 1
  20   12   13 2
  21   12   14 2
  22   12   15 1
  23   15   16 ar
  24   15   17 ar
  25   16   20 ar
  26   16   33 1
  27   17   18 ar
  28   17   34 1
  29   18   19 ar
  30   18   28 1
  31   19   20 ar
  32   19   35 1
  33   20   25 1
  34   21   22 ar
  35   21   36 1
  36   22   23 ar
  37   22   26 1
  38   23   24 ar
  39   23   37 1
  40   24   38 1
  41   28   29 3

#	End of record

