#	Name: ASD01150700
#	Creating user name:	WinNT
#	Creation time:	15. 06. 2019 19:04

#	Modifying user name:	WinNT
#	Modification time:	15. 06. 2019 19:04

#	Program:	/corina/corina34_cracker 3.40 0067  02.08.2006

@<TRIPOS>MOLECULE
ASD01150700
  46   50    0    0    0
SMALL
NO_CHARGES


@<TRIPOS>ATOM
   1 C1             0.1376     1.2474     0.9538 C.2     
   2 O2            -0.0379     1.1171     2.1473 O.2     
   3 C3             3.2627     3.7008    -0.4673 C.ar    
   4 C4             3.5607     2.3639    -0.2022 C.ar    
   5 C5             2.5245     1.5187     0.2762 C.ar    
   6 C6             1.2437     2.0738     0.4615 C.ar    
   7 C7             1.0441     3.4298     0.1670 C.ar    
   8 N8             2.0258     4.1750    -0.2731 N.ar    
   9 C9             4.9558     2.0333    -0.4709 C.2     
  10 C10            5.6785     3.0618    -0.9171 C.2     
  11 S11            4.7101     4.5205    -1.0381 S.3     
  12 C12            7.1538     2.9823    -1.2707 C.3     
  13 C13            7.7418     1.7126    -0.6505 C.3     
  14 C14            6.8495     0.5222    -1.0154 C.3     
  15 C15            5.5263     0.6373    -0.2567 C.3     
  16 C16           -0.3210     4.0384     0.3603 C.3     
  17 C17            2.7836     0.0932     0.5712 C.ar    
  18 C18            2.2676    -0.9001    -0.2634 C.ar    
  19 C19            2.5129    -2.2288     0.0173 C.ar    
  20 C20            3.2694    -2.5773     1.1255 C.ar    
  21 C21            3.7832    -1.5960     1.9560 C.ar    
  22 C22            3.5497    -0.2644     1.6819 C.ar    
  23 Cl23           3.5732    -4.2508     1.4734 Cl      
  24 Cl24           1.8725    -3.4659    -1.0188 Cl      
  25 C25           -0.7780     0.5547    -0.0224 C.3     
  26 C26           -1.5051    -0.7018     0.4606 C.3     
  27 C27           -2.2805     0.6022     0.2625 C.3     
  28 H28            7.2685     2.9465    -2.3541 H       
  29 H29            7.6719     3.8558    -0.8751 H       
  30 H30            8.7467     1.5481    -1.0393 H       
  31 H31            7.7812     1.8204     0.4335 H       
  32 H32            6.6562     0.5270    -2.0881 H       
  33 H33            7.3490    -0.4061    -0.7381 H       
  34 H34            5.6996     0.4729     0.8068 H       
  35 H35            4.8236    -0.1061    -0.6332 H       
  36 H36           -0.4386     4.3439     1.3999 H       
  37 H37           -0.4262     4.9081    -0.2882 H       
  38 H38           -1.0855     3.3032     0.1089 H       
  39 H39            1.6776    -0.6292    -1.1265 H       
  40 H40            4.3715    -1.8735     2.8181 H       
  41 H41            3.9553     0.5001     2.3280 H       
  42 H42           -0.4619     0.5838    -1.0651 H       
  43 H43           -1.6678    -1.4992    -0.2645 H       
  44 H44           -1.3213    -1.0274     1.4845 H       
  45 H45           -2.6068     1.1345     1.1559 H       
  46 H46           -2.9532     0.6627    -0.5930 H       
@<TRIPOS>BOND
   1    1    2 2
   2    1    6 1
   3    1   25 1
   4    3    4 ar
   5    3    8 ar
   6    3   11 1
   7    4    5 ar
   8    4    9 1
   9    5    6 ar
  10    5   17 1
  11    6    7 ar
  12    7    8 ar
  13    7   16 1
  14    9   10 2
  15    9   15 1
  16   10   11 1
  17   10   12 1
  18   12   13 1
  19   12   28 1
  20   12   29 1
  21   13   14 1
  22   13   30 1
  23   13   31 1
  24   14   15 1
  25   14   32 1
  26   14   33 1
  27   15   34 1
  28   15   35 1
  29   16   36 1
  30   16   37 1
  31   16   38 1
  32   17   18 ar
  33   17   22 ar
  34   18   19 ar
  35   18   39 1
  36   19   20 ar
  37   19   24 1
  38   20   21 ar
  39   20   23 1
  40   21   22 ar
  41   21   40 1
  42   22   41 1
  43   25   26 1
  44   25   27 1
  45   25   42 1
  46   26   27 1
  47   26   43 1
  48   26   44 1
  49   27   45 1
  50   27   46 1

#	End of record

