#	Name: ASD03091958
#	Creating user name:	WinNT
#	Creation time:	15. 06. 2019 20:31

#	Modifying user name:	WinNT
#	Modification time:	15. 06. 2019 20:31

#	Program:	/corina/corina34_cracker 3.40 0067  02.08.2006

@<TRIPOS>MOLECULE
ASD03091958
  59   63    0    0    0
SMALL
NO_CHARGES


@<TRIPOS>ATOM
   1 C1             0.0097     1.6713    -0.3217 C.ar    
   2 C2            -1.2271     2.2717    -0.1653 C.ar    
   3 C3            -2.3687     1.4933    -0.1322 C.ar    
   4 C4            -2.2871     0.1156    -0.2545 C.ar    
   5 C5            -1.0614    -0.4993    -0.4111 C.ar    
   6 C6             0.0938     0.2753    -0.4454 C.ar    
   7 O7             1.1537     2.3974    -0.3538 O.3     
   8 C8             2.3252     1.7961     0.1975 C.3     
   9 N9             2.5085     0.4393    -0.3188 N.am    
  10 C10            1.4320    -0.3298    -0.6047 C.2     
  11 C11           -3.5433    -0.7159    -0.2158 C.3     
  12 C12           -3.1972    -2.1609    -0.4670 C.ar    
  13 C13           -3.1535    -2.6450    -1.7615 C.ar    
  14 C14           -2.9183    -2.9987     0.5972 C.ar    
  15 C15           -2.6002    -4.3234     0.3701 C.ar    
  16 C16           -2.5608    -4.8137    -0.9282 C.ar    
  17 C17           -2.8365    -3.9689    -1.9949 C.ar    
  18 O18            1.5619    -1.4790    -0.9802 O.2     
  19 C19            3.8596    -0.0877    -0.5266 C.3     
  20 C20            4.0564    -1.3424     0.3283 C.3     
  21 N21           -2.2383    -6.1578    -1.1619 N.pl3   
  22 O22            5.3539    -1.8874     0.0803 O.3     
  23 C23            4.0459    -0.4509    -2.0029 C.3     
  24 C24            5.4329    -1.0724    -2.1934 C.3     
  25 C25            5.5690    -2.2890    -1.2741 C.3     
  26 O26            3.9365     0.7283    -2.8028 O.3     
  27 C27           -2.1596    -6.7588    -2.3707 C.2     
  28 C28           -1.8235    -8.0535    -2.1656 C.2     
  29 C29           -1.6922    -8.2513    -0.7868 C.2     
  30 N30           -1.9346    -7.1147    -0.1849 N.2     
  31 C31           -3.7146     2.1492     0.0389 C.3     
  32 C32           -4.0937     2.1564     1.5212 C.3     
  33 H33           -1.3001     3.3449    -0.0690 H       
  34 H34           -0.9995    -1.5734    -0.5060 H       
  35 H35            3.1945     2.3994    -0.0641 H       
  36 H36            2.2310     1.7568     1.2827 H       
  37 H37           -4.0128    -0.6196     0.7632 H       
  38 H38           -4.2329    -0.3685    -0.9851 H       
  39 H39           -3.3678    -1.9873    -2.5909 H       
  40 H40           -2.9488    -2.6167     1.6069 H       
  41 H41           -2.3822    -4.9772     1.2017 H       
  42 H42           -2.8033    -4.3466    -3.0062 H       
  43 H43            4.5927     0.6669    -0.2417 H       
  44 H44            3.9672    -1.0814     1.3828 H       
  45 H45            3.2968    -2.0805     0.0708 H       
  46 H46            3.2810    -1.1678    -2.3015 H       
  47 H47            5.5529    -1.3845    -3.2308 H       
  48 H48            6.1986    -0.3384    -1.9419 H       
  49 H49            6.5694    -2.7100    -1.3740 H       
  50 H50            4.8292    -3.0395    -1.5526 H       
  51 H51            4.0445     0.5718    -3.7509 H       
  52 H52           -2.3341    -6.2899    -3.3278 H       
  53 H53           -1.6822    -8.8021    -2.9312 H       
  54 H54           -1.4313    -9.1808    -0.3027 H       
  55 H55           -3.6688     3.1741    -0.3294 H       
  56 H56           -4.4639     1.5936    -0.5250 H       
  57 H57           -4.1394     1.1315     1.8895 H       
  58 H58           -3.3444     2.7120     2.0851 H       
  59 H59           -5.0672     2.6308     1.6449 H       
@<TRIPOS>BOND
   1    1    6 ar
   2    1    7 1
   3    1    2 ar
   4    2    3 ar
   5    2   33 1
   6    3    4 ar
   7    3   31 1
   8    4    5 ar
   9    4   11 1
  10    5    6 ar
  11    5   34 1
  12    6   10 1
  13    7    8 1
  14    8    9 1
  15    8   35 1
  16    8   36 1
  17    9   10 am
  18    9   19 1
  19   10   18 2
  20   11   12 1
  21   11   37 1
  22   11   38 1
  23   12   14 ar
  24   12   13 ar
  25   13   17 ar
  26   13   39 1
  27   14   15 ar
  28   14   40 1
  29   15   16 ar
  30   15   41 1
  31   16   17 ar
  32   16   21 1
  33   17   42 1
  34   19   23 1
  35   19   20 1
  36   19   43 1
  37   20   22 1
  38   20   44 1
  39   20   45 1
  40   21   30 1
  41   21   27 1
  42   22   25 1
  43   23   24 1
  44   23   26 1
  45   23   46 1
  46   24   25 1
  47   24   47 1
  48   24   48 1
  49   25   49 1
  50   25   50 1
  51   26   51 1
  52   27   28 2
  53   27   52 1
  54   28   29 1
  55   28   53 1
  56   29   30 2
  57   29   54 1
  58   31   32 1
  59   31   55 1
  60   31   56 1
  61   32   57 1
  62   32   58 1
  63   32   59 1

#	End of record

