#	Name: ASD01882715
#	Creating user name:	WinNT
#	Creation time:	15. 06. 2019 19:45

#	Modifying user name:	WinNT
#	Modification time:	15. 06. 2019 19:45

#	Program:	/corina/corina34_cracker 3.40 0067  02.08.2006

@<TRIPOS>MOLECULE
ASD01882715
  41   44    0    0    0
SMALL
NO_CHARGES


@<TRIPOS>ATOM
   1 C1            -0.1997     1.6052    -0.0800 C.2     
   2 C2             0.0031     0.2119    -0.1038 C.2     
   3 C3            -1.0667    -0.6173     0.0309 C.2     
   4 C4            -2.3534    -0.0752     0.1912 C.2     
   5 C5            -2.5326     1.2623     0.2117 C.2     
   6 N6            -1.4697     2.1054     0.0716 N.pl3   
   7 C7            -0.8730    -2.1116     0.0079 C.3     
   8 O8            -1.4588    -2.6860     1.1779 O.3     
   9 C9             1.3891    -0.3539    -0.2770 C.3     
  10 C10           -0.9924    -3.9018     1.5684 C.ar    
  11 C11           -1.5450    -2.6939    -1.2373 C.3     
  12 N12            0.6120     2.6450    -0.1826 N.2     
  13 N13           -0.0709     3.7324    -0.0984 N.2     
  14 C14           -1.3408     3.4598     0.0558 C.2     
  15 C15           -2.4577     4.4628     0.1891 C.3     
  16 F16            1.4119    -1.1988    -1.3917 F       
  17 F17            2.2993     0.6916    -0.4655 F       
  18 F18            1.7426    -1.0796     0.8656 F       
  19 C19           -2.3933     5.4397     1.3648 C.3     
  20 C20           -2.1187     5.9344    -0.0567 C.3     
  21 C21            0.0387    -4.5080     0.8660 C.ar    
  22 C22            0.5120    -5.7433     1.2642 C.ar    
  23 C23           -0.0425    -6.3763     2.3636 C.ar    
  24 C24           -1.0717    -5.7723     3.0657 C.ar    
  25 C25           -1.5432    -4.5345     2.6731 C.ar    
  26 F26            0.4207    -7.5847     2.7515 F       
  27 H27           -3.2036    -0.7326     0.2983 H       
  28 H28           -3.5258     1.6680     0.3351 H       
  29 H29            0.1927    -2.3396    -0.0142 H       
  30 H30           -1.0981    -2.2557    -2.1298 H       
  31 H31           -1.4049    -3.7747    -1.2540 H       
  32 H32           -2.6106    -2.4659    -1.2152 H       
  33 H33           -3.4424     4.1140    -0.1221 H       
  34 H34           -3.3356     5.7340     1.8269 H       
  35 H35           -1.5431     5.3570     2.0419 H       
  36 H36           -1.0879     6.1771    -0.3149 H       
  37 H37           -2.8805     6.5540    -0.5299 H       
  38 H38            0.4709    -4.0148     0.0079 H       
  39 H39            1.3148    -6.2156     0.7175 H       
  40 H40           -1.5036    -6.2673     3.9229 H       
  41 H41           -2.3429    -4.0615     3.2236 H       
@<TRIPOS>BOND
   1    1    2 1
   2    1   12 2
   3    1    6 1
   4    2    9 1
   5    2    3 2
   6    3    4 1
   7    3    7 1
   8    4    5 2
   9    4   27 1
  10    5    6 1
  11    5   28 1
  12    6   14 1
  13    7    8 1
  14    7   11 1
  15    7   29 1
  16    8   10 1
  17    9   16 1
  18    9   17 1
  19    9   18 1
  20   10   21 ar
  21   10   25 ar
  22   11   30 1
  23   11   31 1
  24   11   32 1
  25   12   13 1
  26   13   14 2
  27   14   15 1
  28   15   19 1
  29   15   20 1
  30   15   33 1
  31   19   20 1
  32   19   34 1
  33   19   35 1
  34   20   36 1
  35   20   37 1
  36   21   22 ar
  37   21   38 1
  38   22   23 ar
  39   22   39 1
  40   23   24 ar
  41   23   26 1
  42   24   25 ar
  43   24   40 1
  44   25   41 1

#	End of record

