#	Name: ASD02198143
#	Creating user name:	WinNT
#	Creation time:	15. 06. 2019 20:18

#	Modifying user name:	WinNT
#	Modification time:	15. 06. 2019 20:18

#	Program:	/corina/corina34_cracker 3.40 0067  02.08.2006

@<TRIPOS>MOLECULE
ASD02198143
  44   46    0    0    0
SMALL
NO_CHARGES


@<TRIPOS>ATOM
   1 C1            -0.0166     1.3753     0.0096 C.2     
   2 C2             0.0021    -0.0041     0.0020 C.2     
   3 C3            -1.1878    -0.8008     0.0091 C.1     
   4 S4             1.5675     2.0054    -0.0021 S.3     
   5 C5             2.2772     0.3990    -0.0175 C.2     
   6 C6             1.2824    -0.5520    -0.0132 C.2     
   7 C7             3.6580     0.1249    -0.0322 C.2     
   8 C8             4.6307     1.2349    -0.0350 C.2     
   9 O9             4.0506    -1.0302    -0.0426 O.2     
  10 N10            1.5294    -1.9154    -0.0224 N.pl3   
  11 N11           -1.1593     2.1393     0.0194 N.pl3   
  12 N12           -2.1317    -1.4328     0.0147 N.1     
  13 O13            4.3523     2.5515    -0.0243 O.3     
  14 C14           -1.0630     3.6011     0.0268 C.3     
  15 C15           -2.3387     4.2164    -0.5745 C.3     
  16 N16            5.3579     3.2220    -0.0300 N.2     
  17 C17            6.4378     2.4798    -0.0451 C.2     
  18 C18            5.9943     1.1300    -0.0430 C.2     
  19 C19            7.8422     2.9540    -0.0568 C.2     
  20 O20            8.7536     2.1520    -0.0709 O.2     
  21 O21            8.1071     4.2742    -0.0516 O.3     
  22 C22            9.5052     4.6660    -0.0637 C.3     
  23 C23            9.6071     6.1926    -0.0557 C.3     
  24 C24           -2.9729     5.0847     0.5317 C.3     
  25 C25           -1.7894     5.4291     1.4696 C.3     
  26 C26           -0.9665     4.1169     1.4775 C.3     
  27 H27            2.4424    -2.2428    -0.0326 H       
  28 H28            0.7893    -2.5424    -0.0187 H       
  29 H29           -2.0294     1.7105     0.0213 H       
  30 H30           -0.1902     3.9204    -0.5426 H       
  31 H31           -2.0849     4.8351    -1.4353 H       
  32 H32           -3.0295     3.4274    -0.8719 H       
  33 H33            6.5936     0.2316    -0.0520 H       
  34 H34           10.0029     4.2640     0.8188 H       
  35 H35            9.9845     4.2746    -0.9610 H       
  36 H36           10.6566     6.4867    -0.0647 H       
  37 H37            9.1095     6.5946    -0.9382 H       
  38 H38            9.1278     6.5840     0.8416 H       
  39 H39           -3.3993     5.9931     0.1062 H       
  40 H40           -3.7345     4.5205     1.0700 H       
  41 H41           -1.2010     6.2516     1.0630 H       
  42 H42           -2.1470     5.6669     2.4715 H       
  43 H43           -1.4040     3.3964     2.1685 H       
  44 H44            0.0714     4.3191     1.7422 H       
@<TRIPOS>BOND
   1    1    2 2
   2    1    4 1
   3    1   11 1
   4    2    3 1
   5    2    6 1
   6    3   12 3
   7    4    5 1
   8    5    6 2
   9    5    7 1
  10    6   10 1
  11    7    8 1
  12    7    9 2
  13    8   13 1
  14    8   18 2
  15   10   27 1
  16   10   28 1
  17   11   14 1
  18   11   29 1
  19   13   16 1
  20   14   15 1
  21   14   26 1
  22   14   30 1
  23   15   24 1
  24   15   31 1
  25   15   32 1
  26   16   17 2
  27   17   18 1
  28   17   19 1
  29   18   33 1
  30   19   20 2
  31   19   21 1
  32   21   22 1
  33   22   23 1
  34   22   34 1
  35   22   35 1
  36   23   36 1
  37   23   37 1
  38   23   38 1
  39   24   25 1
  40   24   39 1
  41   24   40 1
  42   25   26 1
  43   25   41 1
  44   25   42 1
  45   26   43 1
  46   26   44 1

#	End of record

