#	Name: ASD01816865
#	Creating user name:	WinNT
#	Creation time:	15. 06. 2019 19:36

#	Modifying user name:	WinNT
#	Modification time:	15. 06. 2019 19:36

#	Program:	/corina/corina34_cracker 3.40 0067  02.08.2006

@<TRIPOS>MOLECULE
ASD01816865
  58   62    0    0    0
SMALL
NO_CHARGES


@<TRIPOS>ATOM
   1 C1            -0.0168     1.3897     0.0097 C.ar    
   2 C2             0.0021    -0.0041     0.0020 C.ar    
   3 C3             1.1796    -0.6877    -0.0129 C.ar    
   4 C4             2.3927     0.0187    -0.0207 C.ar    
   5 C5             2.3768     1.4381    -0.0130 C.ar    
   6 C6             1.1385     2.1078     0.0025 C.ar    
   7 C7             3.6297    -0.6529    -0.0357 C.ar    
   8 C8             4.7711     0.0956    -0.0422 C.ar    
   9 C9             4.6871     1.4959    -0.0340 C.ar    
  10 N10            3.5238     2.1168    -0.0199 N.ar    
  11 C11            5.9353     2.2963    -0.0412 C.2     
  12 N12            5.8725     3.6426    -0.0335 N.am    
  13 O13            7.0146     1.7386    -0.0541 O.2     
  14 C14            7.1057     4.4335    -0.0406 C.3     
  15 C15            6.8359     5.8079     0.5794 C.3     
  16 C16            3.6922    -2.1586    -0.0438 C.3     
  17 C17            3.5760    -2.6586    -1.4607 C.ar    
  18 C18            4.7043    -2.8435    -2.2403 C.ar    
  19 C19            2.3354    -2.9493    -2.0110 C.ar    
  20 C20            2.2617    -3.4066    -3.3132 C.ar    
  21 N21            3.3517    -3.5693    -4.0359 N.ar    
  22 C22            4.5566    -3.3078    -3.5457 C.ar    
  23 C23            8.1109     6.6528     0.4956 C.3     
  24 C24            8.5531     6.7517    -0.9667 C.3     
  25 O25            8.7570     5.4381    -1.4912 O.3     
  26 C26            7.5867     4.6181    -1.4822 C.3     
  27 O27            6.4568     5.6489     1.9480 O.3     
  28 C28            5.7557    -3.5057    -4.3961 C.2     
  29 C29            7.0976    -3.3675    -3.9891 C.2     
  30 C30            5.7605    -3.8608    -5.7144 C.2     
  31 N31            7.0455    -3.9349    -6.1118 N.pl3   
  32 N32            7.8614    -3.6229    -5.0177 N.2     
  33 C33            7.5095    -4.2858    -7.4563 C.3     
  34 H34           -0.9643     1.9080     0.0170 H       
  35 H35           -0.9302    -0.5493     0.0084 H       
  36 H36            1.1803    -1.7677    -0.0184 H       
  37 H37            1.1059     3.1873     0.0090 H       
  38 H38            5.7363    -0.3889    -0.0533 H       
  39 H39            5.0108     4.0879    -0.0231 H       
  40 H40            7.8726     3.9175     0.5370 H       
  41 H41            6.0336     6.3035     0.0327 H       
  42 H42            4.6418    -2.4851     0.3800 H       
  43 H43            2.8717    -2.5595     0.5513 H       
  44 H44            5.6856    -2.6307    -1.8425 H       
  45 H45            1.4362    -2.8197    -1.4270 H       
  46 H46            1.2979    -3.6341    -3.7441 H       
  47 H47            7.9123     7.6515     0.8845 H       
  48 H48            8.8990     6.1821     1.0834 H       
  49 H49            7.7816     7.2588    -1.5462 H       
  50 H50            9.4837     7.3159    -1.0277 H       
  51 H51            7.8211     3.6454    -1.9146 H       
  52 H52            6.8026     5.0973    -2.0685 H       
  53 H53            6.2706     6.4812     2.4038 H       
  54 H54            7.4357    -3.0971    -2.9996 H       
  55 H55            4.8914    -4.0486    -6.3275 H       
  56 H56            7.5990    -3.3810    -8.0575 H       
  57 H57            8.4812    -4.7750    -7.3892 H       
  58 H58            6.7934    -4.9625    -7.9227 H       
@<TRIPOS>BOND
   1    1    2 ar
   2    1    6 ar
   3    1   34 1
   4    2    3 ar
   5    2   35 1
   6    3    4 ar
   7    3   36 1
   8    4    5 ar
   9    4    7 ar
  10    5    6 ar
  11    5   10 ar
  12    6   37 1
  13    7    8 ar
  14    7   16 1
  15    8    9 ar
  16    8   38 1
  17    9   10 ar
  18    9   11 1
  19   11   12 am
  20   11   13 2
  21   12   14 1
  22   12   39 1
  23   14   15 1
  24   14   26 1
  25   14   40 1
  26   15   23 1
  27   15   27 1
  28   15   41 1
  29   16   17 1
  30   16   42 1
  31   16   43 1
  32   17   18 ar
  33   17   19 ar
  34   18   22 ar
  35   18   44 1
  36   19   20 ar
  37   19   45 1
  38   20   21 ar
  39   20   46 1
  40   21   22 ar
  41   22   28 1
  42   23   24 1
  43   23   47 1
  44   23   48 1
  45   24   25 1
  46   24   49 1
  47   24   50 1
  48   25   26 1
  49   26   51 1
  50   26   52 1
  51   27   53 1
  52   28   29 1
  53   28   30 2
  54   29   32 2
  55   29   54 1
  56   30   31 1
  57   30   55 1
  58   31   32 1
  59   31   33 1
  60   33   56 1
  61   33   57 1
  62   33   58 1

#	End of record

