#	Name: ASD06190003
#	Creating user name:	WinNT
#	Creation time:	15. 06. 2019 21:05

#	Modifying user name:	WinNT
#	Modification time:	15. 06. 2019 21:05

#	Program:	/corina/corina34_cracker 3.40 0067  02.08.2006

@<TRIPOS>MOLECULE
ASD06190003
  39   40    0    0    0
SMALL
NO_CHARGES


@<TRIPOS>ATOM
   1 C1            -0.0171     1.3847     0.0216 C.ar    
   2 C2            -0.2283     0.4070     0.9840 C.ar    
   3 C3            -1.4170    -0.2990     1.0009 C.ar    
   4 C4            -2.3953    -0.0321     0.0595 C.ar    
   5 C5            -2.1878     0.9414    -0.9006 C.ar    
   6 C6            -1.0043     1.6544    -0.9193 C.ar    
   7 N7             1.1847     2.1014     0.0020 N.am    
   8 C8             2.3604     1.4481     0.0890 C.2     
   9 N9             3.5189     2.1283    -0.0195 N.am    
  10 N10            3.5010     3.5143    -0.2228 N.am    
  11 C11            4.6595     4.1945    -0.3314 C.2     
  12 S12            2.3822    -0.2456     0.3374 S.2     
  13 C13            4.6403     5.6854    -0.5500 C.3     
  14 O14            5.7174     3.6066    -0.2531 O.2     
  15 Cl15          -1.6821    -1.5220     2.2041 Cl      
  16 Cl16          -0.7450     2.8765    -2.1246 Cl      
  17 O17            5.9814     6.1722    -0.6316 O.3     
  18 N18            6.0752     7.5700    -0.8375 N.2     
  19 C19            7.2358     8.1338    -0.9290 C.2     
  20 C20            7.3336     9.5907    -1.1435 C.ar    
  21 C21            6.1741    10.3641    -1.2483 C.ar    
  22 C22            8.5847    10.2032    -1.2370 C.ar    
  23 C23            8.6697    11.5652    -1.4370 C.ar    
  24 C24            7.5174    12.3259    -1.5449 C.ar    
  25 C25            6.2731    11.7263    -1.4485 C.ar    
  26 Cl26           7.6338    14.0398    -1.7955 Cl      
  27 Cl27           4.6135     9.6134    -1.1275 Cl      
  28 H28            0.5352     0.1978     1.7186 H       
  29 H29           -3.3227    -0.5854     0.0743 H       
  30 H30           -2.9533     1.1474    -1.6341 H       
  31 H31            1.1716     3.0683    -0.0741 H       
  32 H32            4.3650     1.6581     0.0431 H       
  33 H33            2.6549     3.9845    -0.2854 H       
  34 H34            4.1152     5.9097    -1.4785 H       
  35 H35            4.1285     6.1682     0.2825 H       
  36 H36            8.1333     7.5385    -0.8484 H       
  37 H37            9.4844     9.6116    -1.1524 H       
  38 H38            9.6371    12.0397    -1.5094 H       
  39 H39            5.3782    12.3250    -1.5334 H       
@<TRIPOS>BOND
   1    1    2 ar
   2    1    7 1
   3    1    6 ar
   4    2    3 ar
   5    2   28 1
   6    3    4 ar
   7    3   15 1
   8    4    5 ar
   9    4   29 1
  10    5    6 ar
  11    5   30 1
  12    6   16 1
  13    7    8 am
  14    7   31 1
  15    8    9 am
  16    8   12 2
  17    9   10 1
  18    9   32 1
  19   10   11 am
  20   10   33 1
  21   11   13 1
  22   11   14 2
  23   13   17 1
  24   13   34 1
  25   13   35 1
  26   17   18 1
  27   18   19 2
  28   19   20 1
  29   19   36 1
  30   20   21 ar
  31   20   22 ar
  32   21   27 1
  33   21   25 ar
  34   22   23 ar
  35   22   37 1
  36   23   24 ar
  37   23   38 1
  38   24   25 ar
  39   24   26 1
  40   25   39 1

#	End of record

