#	Name: ASD01028485
#	Creating user name:	WinNT
#	Creation time:	15. 06. 2019 18:57

#	Modifying user name:	WinNT
#	Modification time:	15. 06. 2019 18:57

#	Program:	/corina/corina34_cracker 3.40 0067  02.08.2006

@<TRIPOS>MOLECULE
ASD01028485
  46   50    0    0    0
SMALL
NO_CHARGES


@<TRIPOS>ATOM
   1 C1            -0.0171     1.4121     0.0098 C.ar    
   2 C2             0.0021    -0.0041     0.0020 C.ar    
   3 C3             1.2106     2.1118     0.0018 C.ar    
   4 C4             2.3793     1.3716    -0.0133 C.ar    
   5 C5             2.3160    -0.0161    -0.0202 C.ar    
   6 N6             1.1705    -0.6564    -0.0123 N.ar    
   7 O7             1.2422     3.4673     0.0084 O.3     
   8 C8             2.5302     4.0862    -0.0005 C.3     
   9 C9             2.3676     5.5844     0.0086 C.2     
  10 N10            2.2911     6.3790     1.1110 N.pl3   
  11 C11            2.1486     7.6614     0.6412 C.2     
  12 N12            2.1455     7.5869    -0.6801 N.2     
  13 N13            2.2800     6.3594    -1.0415 N.2     
  14 C14            2.3288     6.1314     2.4508 C.2     
  15 C15            2.2253     7.1557     3.3436 C.2     
  16 C16            2.0776     8.4867     2.8823 C.2     
  17 C17            2.0404     8.7346     1.5483 C.2     
  18 C18           -1.2149    -0.7042     0.0100 C.ar    
  19 C19           -2.4012    -0.0062     0.0251 C.ar    
  20 C20           -2.4084     1.3917     0.0326 C.ar    
  21 C21           -1.2427     2.0939     0.0310 C.ar    
  22 O22           -3.5785    -0.6836     0.0324 O.3     
  23 C23           -4.7757     0.0965     0.0481 C.3     
  24 C24            2.2668     6.8772     4.7961 C.2     
  25 C25            3.2240     7.2835     5.6570 C.2     
  26 N26            3.0281     6.9033     6.9006 N.2     
  27 C27            1.9709     6.2043     7.1459 C.2     
  28 S28            1.0715     5.9625     5.7124 S.3     
  29 C29            1.5814     5.6814     8.5045 C.3     
  30 H30            3.3371     1.8706    -0.0202 H       
  31 H31            3.2348    -0.5836    -0.0325 H       
  32 H32            3.0885     3.7759     0.8827 H       
  33 H33            3.0719     3.7850    -0.8972 H       
  34 H34            2.4409     5.1179     2.8067 H       
  35 H35            1.9948     9.2999     3.5882 H       
  36 H36            1.9284     9.7455     1.1851 H       
  37 H37           -1.2202    -1.7841     0.0039 H       
  38 H38           -3.3500     1.9205     0.0441 H       
  39 H39           -1.2613     3.1737     0.0368 H       
  40 H40           -4.7912     0.7203     0.9418 H       
  41 H41           -4.8080     0.7304    -0.8380 H       
  42 H42           -5.6412    -0.5662     0.0525 H       
  43 H43            4.0776     7.8701     5.3507 H       
  44 H44            0.9586     6.4178     9.0124 H       
  45 H45            1.0243     4.7515     8.3899 H       
  46 H46            2.4794     5.4966     9.0939 H       
@<TRIPOS>BOND
   1    1    2 ar
   2    1    3 ar
   3    1   21 ar
   4    2   18 ar
   5    2    6 ar
   6    3    4 ar
   7    3    7 1
   8    4    5 ar
   9    4   30 1
  10    5    6 ar
  11    5   31 1
  12    7    8 1
  13    8    9 1
  14    8   32 1
  15    8   33 1
  16    9   10 1
  17    9   13 2
  18   10   11 1
  19   10   14 1
  20   11   12 2
  21   11   17 1
  22   12   13 1
  23   14   15 2
  24   14   34 1
  25   15   16 1
  26   15   24 1
  27   16   17 2
  28   16   35 1
  29   17   36 1
  30   18   19 ar
  31   18   37 1
  32   19   20 ar
  33   19   22 1
  34   20   21 ar
  35   20   38 1
  36   21   39 1
  37   22   23 1
  38   23   40 1
  39   23   41 1
  40   23   42 1
  41   24   25 2
  42   24   28 1
  43   25   26 1
  44   25   43 1
  45   26   27 2
  46   27   28 1
  47   27   29 1
  48   29   44 1
  49   29   45 1
  50   29   46 1

#	End of record

