#	Name: ASD01152190
#	Creating user name:	WinNT
#	Creation time:	15. 06. 2019 19:05

#	Modifying user name:	WinNT
#	Modification time:	15. 06. 2019 19:05

#	Program:	/corina/corina34_cracker 3.40 0067  02.08.2006

@<TRIPOS>MOLECULE
ASD01152190
  33   33    0    0    0
SMALL
NO_CHARGES


@<TRIPOS>ATOM
   1 C1             0.0159     1.3791    -0.0463 C.ar    
   2 C2             0.0486    -0.0009    -0.0688 C.ar    
   3 C3             1.2562    -0.6638    -0.1943 C.ar    
   4 C4             2.4346     0.0523    -0.2980 C.ar    
   5 C5             2.4097     1.4329    -0.2766 C.ar    
   6 C6             1.1985     2.1025    -0.1503 C.ar    
   7 N7             1.1693     3.4972    -0.1287 N.pl3   
   8 N8             0.0441     4.1171    -0.0114 N.2     
   9 C9             0.0250     5.4270     0.1261 C.2     
  10 C10            1.2801     6.1620     0.3409 C.2     
  11 N11            1.2790     7.5097     0.3484 N.am    
  12 O12            2.3193     5.5538     0.5118 O.2     
  13 C13            2.4422     8.1841     0.4420 C.2     
  14 O14            2.4410     9.5301     0.4495 O.3     
  15 O15            3.4915     7.5772     0.5196 O.2     
  16 N16            3.7242    -0.6618    -0.4315 N.pl3   
  17 O17            3.7471    -1.8794    -0.4501 O.2     
  18 O18            4.7626    -0.0317    -0.5229 O.2     
  19 C19           -1.2182     6.1351     0.0665 C.1     
  20 N20           -2.2045     6.6969     0.0191 N.1     
  21 C21            3.5292    11.7065     0.5457 C.3     
  22 C22            3.7304    10.1898     0.5527 C.3     
  23 H23           -0.9276     1.8961     0.0476 H       
  24 H24           -0.8697    -0.5635     0.0119 H       
  25 H25            1.2788    -1.7435    -0.2109 H       
  26 H26            3.3304     1.9916    -0.3576 H       
  27 H27            1.9951     4.0008    -0.2020 H       
  28 H28            0.4410     7.9944     0.2865 H       
  29 H29            3.0421    12.0041    -0.3828 H       
  30 H30            2.9051    11.9941     1.3918 H       
  31 H31            4.4971    12.2018     0.6232 H       
  32 H32            4.2175     9.8922     1.4813 H       
  33 H33            4.3544     9.9022    -0.2934 H       
@<TRIPOS>BOND
   1    1    2 ar
   2    1    6 ar
   3    1   23 1
   4    2    3 ar
   5    2   24 1
   6    3    4 ar
   7    3   25 1
   8    4    5 ar
   9    4   16 1
  10    5    6 ar
  11    5   26 1
  12    6    7 1
  13    7    8 1
  14    7   27 1
  15    8    9 2
  16    9   10 1
  17    9   19 1
  18   10   11 am
  19   10   12 2
  20   11   13 am
  21   11   28 1
  22   13   14 1
  23   13   15 2
  24   14   22 1
  25   16   17 2
  26   16   18 2
  27   19   20 3
  28   21   22 1
  29   21   29 1
  30   21   30 1
  31   21   31 1
  32   22   32 1
  33   22   33 1

#	End of record

