#	Name: ASD05430081
#	Creating user name:	WinNT
#	Creation time:	15. 06. 2019 20:59

#	Modifying user name:	WinNT
#	Modification time:	15. 06. 2019 20:59

#	Program:	/corina/corina34_cracker 3.40 0067  02.08.2006

@<TRIPOS>MOLECULE
ASD05430081
  71   78    0    0    0
SMALL
NO_CHARGES


@<TRIPOS>ATOM
   1 C1             0.0744     1.1524     0.4575 C.ar    
   2 C2             0.0174    -0.0127    -0.3165 C.ar    
   3 C3             1.1416    -0.4648    -0.9910 C.ar    
   4 C4             2.3309     0.2264    -0.9088 C.ar    
   5 C5             2.4025     1.3910    -0.1354 C.ar    
   6 C6             1.2717     1.8409     0.5444 C.ar    
   7 C7             4.8733    -0.0322     0.1703 C.3     
   8 C8             4.8375     1.4732     0.0376 C.2     
   9 C9             3.6675     2.1373    -0.0396 C.2     
  10 C10            6.2204    -0.4945     0.7060 C.3     
  11 C11            6.8644     0.5218     1.6415 C.3     
  12 N12            7.0980     1.7701     0.9129 N.pl3   
  13 C13            6.1217     2.1893    -0.0040 C.2     
  14 C14            8.2860     2.5913     1.1345 C.3     
  15 C15            8.7713     3.1346    -0.2144 C.3     
  16 N16            7.6393     3.7051    -0.9483 N.pl3   
  17 N17            6.3646     3.1337    -0.8550 N.2     
  18 C18            7.9426     3.7400     2.0475 C.ar    
  19 C19            8.8349     4.1344     3.0270 C.ar    
  20 C20            8.5213     5.1880     3.8645 C.ar    
  21 C21            7.3128     5.8487     3.7223 C.ar    
  22 C22            6.4199     5.4528     2.7410 C.ar    
  23 C23            6.7380     4.4023     1.9012 C.ar    
  24 F24            7.0050     6.8785     4.5408 F       
  25 N25           -1.1851    -0.7280    -0.4102 N.pl3   
  26 C26           -1.7899    -1.1577    -1.5628 C.2     
  27 C27           -2.9162    -1.7990    -1.1967 C.2     
  28 N28           -3.0014    -1.7646     0.1413 N.2     
  29 C29           -1.9673    -1.1309     0.6243 C.2     
  30 C30           -3.9093    -2.4433    -2.1292 C.3     
  31 C31            1.0387     3.0297     1.4562 C.3     
  32 C32           -0.2997     2.6541     2.1354 C.3     
  33 O33           -0.9042     1.7704     1.1759 O.3     
  34 C34            6.1021    -1.8351     1.3717 C.ar    
  35 C35            6.5957    -2.7857     0.4707 C.ar    
  36 O36            6.9973    -2.2105    -0.6818 O.3     
  37 C37            7.1766    -0.7957    -0.4717 C.3     
  38 C38            5.6207    -2.1819     2.6168 C.ar    
  39 C39            5.6476    -3.5309     2.9516 C.ar    
  40 C40            6.1356    -4.4777     2.0743 C.ar    
  41 C41            6.6189    -4.1365     0.8212 C.ar    
  42 H42            1.0847    -1.3653    -1.5846 H       
  43 H43            3.2030    -0.1286    -1.4378 H       
  44 H44            4.0866    -0.3509     0.8542 H       
  45 H45            4.7021    -0.4827    -0.8073 H       
  46 H46            3.6580     3.2173    -0.0312 H       
  47 H47            6.2007     0.7116     2.4850 H       
  48 H48            7.8141     0.1302     2.0060 H       
  49 H49            9.0701     1.9844     1.5872 H       
  50 H50            9.5215     3.9073    -0.0460 H       
  51 H51            9.2097     2.3237    -0.7960 H       
  52 H52            7.7744     4.4879    -1.5051 H       
  53 H53            9.7774     3.6187     3.1379 H       
  54 H54            9.2184     5.4957     4.6299 H       
  55 H55            5.4770     5.9674     2.6292 H       
  56 H56            6.0416     4.0933     1.1357 H       
  57 H57           -1.4321    -1.0100    -2.5710 H       
  58 H58           -1.7708    -0.9505     1.6709 H       
  59 H59           -3.6274    -3.4825    -2.2985 H       
  60 H60           -4.9036    -2.4044    -1.6844 H       
  61 H61           -3.9151    -1.9090    -3.0793 H       
  62 H62            1.8376     3.1186     2.1923 H       
  63 H63            0.9383     3.9492     0.8795 H       
  64 H64           -0.1227     2.1371     3.0786 H       
  65 H65           -0.9171     3.5392     2.2886 H       
  66 H66            6.8841    -0.2341    -1.3589 H       
  67 H67            8.2080    -0.5745    -0.1970 H       
  68 H68            5.2400    -1.4384     3.3015 H       
  69 H69            5.2797    -3.8441     3.9175 H       
  70 H70            6.1411    -5.5154     2.3733 H       
  71 H71            6.9994    -4.8861     0.1430 H       
@<TRIPOS>BOND
   1    1    2 ar
   2    1    6 ar
   3    1   33 1
   4    2    3 ar
   5    2   25 1
   6    3    4 ar
   7    3   42 1
   8    4    5 ar
   9    4   43 1
  10    5    6 ar
  11    5    9 1
  12    6   31 1
  13    7    8 1
  14    7   10 1
  15    7   44 1
  16    7   45 1
  17    8    9 2
  18    8   13 1
  19    9   46 1
  20   10   11 1
  21   10   34 1
  22   10   37 1
  23   11   12 1
  24   11   47 1
  25   11   48 1
  26   12   13 1
  27   12   14 1
  28   13   17 2
  29   14   15 1
  30   14   18 1
  31   14   49 1
  32   15   16 1
  33   15   50 1
  34   15   51 1
  35   16   17 1
  36   16   52 1
  37   18   19 ar
  38   18   23 ar
  39   19   20 ar
  40   19   53 1
  41   20   21 ar
  42   20   54 1
  43   21   22 ar
  44   21   24 1
  45   22   23 ar
  46   22   55 1
  47   23   56 1
  48   25   26 1
  49   25   29 1
  50   26   27 2
  51   26   57 1
  52   27   28 1
  53   27   30 1
  54   28   29 2
  55   29   58 1
  56   30   59 1
  57   30   60 1
  58   30   61 1
  59   31   32 1
  60   31   62 1
  61   31   63 1
  62   32   33 1
  63   32   64 1
  64   32   65 1
  65   34   35 ar
  66   34   38 ar
  67   35   36 1
  68   35   41 ar
  69   36   37 1
  70   37   66 1
  71   37   67 1
  72   38   39 ar
  73   38   68 1
  74   39   40 ar
  75   39   69 1
  76   40   41 ar
  77   40   70 1
  78   41   71 1

#	End of record

