#	Name: ASD02560405
#	Creating user name:	WinNT
#	Creation time:	15. 06. 2019 20:25

#	Modifying user name:	WinNT
#	Modification time:	15. 06. 2019 20:25

#	Program:	/corina/corina34_cracker 3.40 0067  02.08.2006

@<TRIPOS>MOLECULE
ASD02560405
  46   49    0    0    0
SMALL
NO_CHARGES


@<TRIPOS>ATOM
   1 C1             0.1360     1.3888     1.1081 C.2     
   2 C2             0.1571    -0.0174     1.0956 C.2     
   3 C3             1.2853    -0.6789     0.7694 C.2     
   4 N4             2.4259     0.0060     0.4459 N.pl3   
   5 C5             2.4354     1.3822     0.4491 C.2     
   6 C6             1.2594     2.0843     0.7891 C.2     
   7 C7             3.6780    -0.4088     0.0858 C.2     
   8 C8             4.4299     0.7280    -0.1246 C.2     
   9 N9             3.6438     1.7959     0.1050 N.2     
  10 C10            5.8539     0.7668    -0.5319 C.ar    
  11 N11            4.1117    -1.7283    -0.0436 N.3     
  12 C12            2.9882    -2.6664     0.0818 C.3     
  13 C13            3.3288    -3.9699    -0.6435 C.3     
  14 C14            6.3127     1.7758    -1.3785 C.ar    
  15 C15            2.7302    -2.9584     1.5613 C.3     
  16 C16            1.5601    -3.9355     1.6919 C.3     
  17 C17            1.9007    -5.2389     0.9666 C.3     
  18 C18            2.1586    -4.9469    -0.5129 C.3     
  19 C19            7.6399     1.8066    -1.7544 C.ar    
  20 C20            8.5150     0.8393    -1.2933 C.ar    
  21 C21            8.0659    -0.1640    -0.4532 C.ar    
  22 C22            6.7422    -0.2021    -0.0657 C.ar    
  23 C23            9.9633     0.8785    -1.7080 C.3     
  24 F24           10.6910     1.6427    -0.7895 F       
  25 F25           10.4745    -0.4233    -1.7403 F       
  26 F26           10.0689     1.4526    -2.9795 F       
  27 H27           -0.7714     1.9146     1.3661 H       
  28 H28           -0.7355    -0.5702     1.3490 H       
  29 H29            1.2897    -1.7588     0.7635 H       
  30 H30            1.2520     3.1643     0.7955 H       
  31 H31            4.6008    -1.8644    -0.9155 H       
  32 H32            2.0957    -2.2259    -0.3626 H       
  33 H33            3.5125    -3.7618    -1.6975 H       
  34 H34            4.2212    -4.4104    -0.1991 H       
  35 H35            5.6304     2.5312    -1.7394 H       
  36 H36            3.6227    -3.3990     2.0057 H       
  37 H37            2.4876    -2.0299     2.0780 H       
  38 H38            1.3763    -4.1435     2.7460 H       
  39 H39            0.6676    -3.4949     1.2475 H       
  40 H40            2.7931    -5.6795     1.4110 H       
  41 H41            1.0670    -5.9350     1.0596 H       
  42 H42            1.2661    -4.5063    -0.9573 H       
  43 H43            2.4012    -5.8755    -1.0296 H       
  44 H44            7.9963     2.5872    -2.4103 H       
  45 H45            8.7537    -0.9165    -0.0968 H       
  46 H46            6.3927    -0.9856     0.5904 H       
@<TRIPOS>BOND
   1    1    2 1
   2    1    6 2
   3    1   27 1
   4    2    3 2
   5    2   28 1
   6    3    4 1
   7    3   29 1
   8    4    5 1
   9    4    7 1
  10    5    6 1
  11    5    9 2
  12    6   30 1
  13    7    8 2
  14    7   11 1
  15    8    9 1
  16    8   10 1
  17   10   14 ar
  18   10   22 ar
  19   11   12 1
  20   11   31 1
  21   12   13 1
  22   12   15 1
  23   12   32 1
  24   13   18 1
  25   13   33 1
  26   13   34 1
  27   14   19 ar
  28   14   35 1
  29   15   16 1
  30   15   36 1
  31   15   37 1
  32   16   17 1
  33   16   38 1
  34   16   39 1
  35   17   18 1
  36   17   40 1
  37   17   41 1
  38   18   42 1
  39   18   43 1
  40   19   20 ar
  41   19   44 1
  42   20   21 ar
  43   20   23 1
  44   21   22 ar
  45   21   45 1
  46   22   46 1
  47   23   24 1
  48   23   25 1
  49   23   26 1

#	End of record

