#	Name: ASD05060089
#	Creating user name:	WinNT
#	Creation time:	15. 06. 2019 20:56

#	Modifying user name:	WinNT
#	Modification time:	15. 06. 2019 20:56

#	Program:	/corina/corina34_cracker 3.40 0067  02.08.2006

@<TRIPOS>MOLECULE
ASD05060089
  26   27    0    0    0
SMALL
NO_CHARGES


@<TRIPOS>ATOM
   1 C1             0.0112     1.3245     0.2846 C.2     
   2 C2             0.0244    -0.0200     0.1315 C.2     
   3 N3             1.2817    -0.3831    -0.2083 N.pl3   
   4 N4             2.0643     0.7773    -0.2653 N.2     
   5 C5             1.3023     1.7997     0.0301 C.2     
   6 C6             1.7241    -1.6902    -0.4590 C.ar    
   7 C7             0.9355    -2.5609    -1.1988 C.ar    
   8 C8             1.3728    -3.8477    -1.4446 C.ar    
   9 C9             2.5970    -4.2695    -0.9536 C.ar    
  10 C10            3.3849    -3.4024    -0.2153 C.ar    
  11 C11            2.9536    -2.1131     0.0276 C.ar    
  12 C12           -1.1511    -0.9463     0.3086 C.3     
  13 C13           -1.1845     2.1627     0.6570 C.3     
  14 O14           -0.8010     3.5378     0.7209 O.3     
  15 F15            3.0229    -5.5288    -1.1946 F       
  16 H16            1.6162     2.8323     0.0705 H       
  17 H17           -0.0194    -2.2324    -1.5817 H       
  18 H18            0.7595    -4.5254    -2.0198 H       
  19 H19            4.3392    -3.7332     0.1671 H       
  20 H20            3.5703    -1.4357     0.5996 H       
  21 H21           -1.6168    -1.1314    -0.6593 H       
  22 H22           -0.8093    -1.8900     0.7337 H       
  23 H23           -1.8774    -0.4875     0.9795 H       
  24 H24           -1.9642     2.0376    -0.0944 H       
  25 H25           -1.5622     1.8453     1.6289 H       
  26 H26           -1.5227     4.1369     0.9561 H       
@<TRIPOS>BOND
   1    1    2 2
   2    1    5 1
   3    1   13 1
   4    2    3 1
   5    2   12 1
   6    3    4 1
   7    3    6 1
   8    4    5 2
   9    5   16 1
  10    6    7 ar
  11    6   11 ar
  12    7    8 ar
  13    7   17 1
  14    8    9 ar
  15    8   18 1
  16    9   10 ar
  17    9   15 1
  18   10   11 ar
  19   10   19 1
  20   11   20 1
  21   12   21 1
  22   12   22 1
  23   12   23 1
  24   13   14 1
  25   13   24 1
  26   13   25 1
  27   14   26 1

#	End of record

