#	Name: ASD04220058
#	Creating user name:	WinNT
#	Creation time:	15. 06. 2019 20:48

#	Modifying user name:	WinNT
#	Modification time:	15. 06. 2019 20:48

#	Program:	/corina/corina34_cracker 3.40 0067  02.08.2006

@<TRIPOS>MOLECULE
ASD04220058
  35   35    0    0    0
SMALL
NO_CHARGES


@<TRIPOS>ATOM
   1 C1            -0.0173     1.4248     0.0099 C.3     
   2 O2             0.0021    -0.0041     0.0020 O.3     
   3 C3             1.4189     1.9549    -0.0010 C.3     
   4 O4             2.1280     1.4359     1.1258 O.3     
   5 S5             2.1370     2.3635     2.3325 S.o2    
   6 C6             2.1106     1.5065    -1.2920 C.3     
   7 O7             2.1863     0.0799    -1.3231 O.3     
   8 S8             3.4501    -0.4589    -1.9780 S.o2    
   9 C9             1.2986     2.0029    -2.4923 C.3     
  10 C10           -0.1329     1.4709    -2.3852 C.3     
  11 O11           -0.7073     1.8984    -1.1485 O.3     
  12 C12           -0.9665     2.0114    -3.5487 C.3     
  13 O13           -2.2687     1.4240    -3.5151 O.3     
  14 S14           -3.1884     1.8926    -4.6336 S.o2    
  15 O15            3.0384     1.7924     3.2709 O.2     
  16 O16            2.2775     3.6827     1.8234 O.2     
  17 O17            0.7549     2.2921     2.9659 O.3     
  18 O18            3.2696    -1.8627    -2.1041 O.2     
  19 O19            3.7235     0.3919    -3.0829 O.2     
  20 O20            4.5900    -0.2592    -0.9895 O.3     
  21 O21           -4.4782     1.3762    -4.3354 O.2     
  22 O22           -2.9282     3.2780    -4.8131 O.2     
  23 O23           -2.7332     1.2008    -5.9107 O.3     
  24 H24           -0.5278     1.7765     0.9064 H       
  25 H25           -0.8759    -0.4094     0.0082 H       
  26 H26            1.4056     3.0438     0.0470 H       
  27 H27            3.1159     1.9259    -1.3317 H       
  28 H28            1.2829     3.0928    -2.4958 H       
  29 H29            1.7535     1.6413    -3.4144 H       
  30 H30           -0.1196     0.3816    -2.4225 H       
  31 H31           -1.0540     3.0943    -3.4607 H       
  32 H32           -0.4795     1.7617    -4.4914 H       
  33 H33            0.6518     2.8502     3.7489 H       
  34 H34            5.4476    -0.5709    -1.3098 H       
  35 H35           -3.2563     1.4313    -6.6907 H       
@<TRIPOS>BOND
   1    1    2 1
   2    1    3 1
   3    1   11 1
   4    1   24 1
   5    2   25 1
   6    3    4 1
   7    3    6 1
   8    3   26 1
   9    4    5 1
  10    5   15 2
  11    5   16 2
  12    5   17 1
  13    6    7 1
  14    6    9 1
  15    6   27 1
  16    7    8 1
  17    8   18 2
  18    8   19 2
  19    8   20 1
  20    9   10 1
  21    9   28 1
  22    9   29 1
  23   10   11 1
  24   10   12 1
  25   10   30 1
  26   12   13 1
  27   12   31 1
  28   12   32 1
  29   13   14 1
  30   14   21 2
  31   14   22 2
  32   14   23 1
  33   17   33 1
  34   20   34 1
  35   23   35 1

#	End of record

