#	Name: ASD01900292
#	Creating user name:	WinNT
#	Creation time:	15. 06. 2019 19:51

#	Modifying user name:	WinNT
#	Modification time:	15. 06. 2019 19:51

#	Program:	/corina/corina34_cracker 3.40 0067  02.08.2006

@<TRIPOS>MOLECULE
ASD01900292
  54   56    0    0    0
SMALL
NO_CHARGES


@<TRIPOS>ATOM
   1 C1            -0.0184     1.5028     0.0103 C.2     
   2 C2             0.0021    -0.0041     0.0020 C.3     
   3 O3             1.0197     2.1211     0.0037 O.2     
   4 O4            -1.1898     2.1580     0.0194 O.3     
   5 S5             1.6116    -0.5837    -0.6014 S.o2    
   6 O6             1.7667    -0.2778    -1.9804 O.2     
   7 O7             2.6349    -0.2788     0.3362 O.2     
   8 N8             1.4982    -2.2352    -0.5596 N.am    
   9 C9             1.0535    -3.0292    -1.5806 C.2     
  10 C10            1.1090    -4.3165    -1.1666 C.2     
  11 C11            1.6057    -4.3116     0.1558 C.2     
  12 C12            1.8384    -3.0278     0.4960 C.2     
  13 C13            0.4597    -7.8715    -2.1600 C.ar    
  14 C14            0.5736    -9.1397    -1.5944 C.ar    
  15 C15            0.2008   -10.2457    -2.3414 C.ar    
  16 C16           -0.2732   -10.0452    -3.6287 C.ar    
  17 C17           -0.3599    -8.7554    -4.1273 C.ar    
  18 N18            0.0008    -7.7230    -3.3966 N.ar    
  19 C19            0.8482    -6.6784    -1.3725 C.2     
  20 O20            1.2643    -6.8083    -0.2379 O.2     
  21 N21            0.7402    -5.4490    -1.9142 N.am    
  22 C22           -0.2244    -0.5172     1.4007 C.ar    
  23 C23           -1.3105    -1.3283     1.6720 C.ar    
  24 C24           -1.5183    -1.7989     2.9550 C.ar    
  25 C25           -0.6398    -1.4589     3.9667 C.ar    
  26 C26            0.4468    -0.6486     3.6953 C.ar    
  27 C27            0.6570    -0.1815     2.4113 C.ar    
  28 C28           -1.1335     3.6089     0.0270 C.3     
  29 C29           -0.3989     4.0974    -1.2231 C.3     
  30 C30           -2.5551     4.1744     0.0369 C.3     
  31 C31           -0.3871     4.0838     1.2754 C.3     
  32 H32           -0.7864    -0.3745    -0.6531 H       
  33 H33            0.7165    -2.6882    -2.5484 H       
  34 H34            1.7723    -5.1778     0.7789 H       
  35 H35            2.2258    -2.6856     1.4442 H       
  36 H36            0.9474    -9.2590    -0.5883 H       
  37 H37            0.2781   -11.2414    -1.9302 H       
  38 H38           -0.5717   -10.8861    -4.2370 H       
  39 H39           -0.7287    -8.5956    -5.1297 H       
  40 H40            0.4081    -5.3454    -2.8197 H       
  41 H41           -1.9969    -1.5939     0.8816 H       
  42 H42           -2.3672    -2.4320     3.1671 H       
  43 H43           -0.8025    -1.8261     4.9693 H       
  44 H44            1.1329    -0.3827     4.4857 H       
  45 H45            1.5079     0.4486     2.1985 H       
  46 H46           -0.9307     3.7591    -2.1124 H       
  47 H47           -0.3567     5.1865    -1.2173 H       
  48 H48            0.6139     3.6945    -1.2301 H       
  49 H49           -3.0784     3.8265     0.9275 H       
  50 H50           -2.5128     5.2636     0.0426 H       
  51 H51           -3.0869     3.8361    -0.8525 H       
  52 H52            0.6257     3.6809     1.2684 H       
  53 H53           -0.3448     5.1730     1.2811 H       
  54 H54           -0.9104     3.7358     2.1659 H       
@<TRIPOS>BOND
   1    1    2 1
   2    1    3 2
   3    1    4 1
   4    2    5 1
   5    2   22 1
   6    2   32 1
   7    4   28 1
   8    5    6 2
   9    5    7 2
  10    5    8 am
  11    8    9 1
  12    8   12 1
  13    9   10 2
  14    9   33 1
  15   10   11 1
  16   10   21 1
  17   11   12 2
  18   11   34 1
  19   12   35 1
  20   13   14 ar
  21   13   18 ar
  22   13   19 1
  23   14   15 ar
  24   14   36 1
  25   15   16 ar
  26   15   37 1
  27   16   17 ar
  28   16   38 1
  29   17   18 ar
  30   17   39 1
  31   19   20 2
  32   19   21 am
  33   21   40 1
  34   22   23 ar
  35   22   27 ar
  36   23   24 ar
  37   23   41 1
  38   24   25 ar
  39   24   42 1
  40   25   26 ar
  41   25   43 1
  42   26   27 ar
  43   26   44 1
  44   27   45 1
  45   28   29 1
  46   28   31 1
  47   28   30 1
  48   29   46 1
  49   29   47 1
  50   29   48 1
  51   30   49 1
  52   30   50 1
  53   30   51 1
  54   31   52 1
  55   31   53 1
  56   31   54 1

#	End of record

