#	Name: ASD00069308
#	Creating user name:	WinNT
#	Creation time:	15. 06. 2019 18:29

#	Modifying user name:	WinNT
#	Modification time:	15. 06. 2019 18:29

#	Program:	/corina/corina34_cracker 3.40 0067  02.08.2006

@<TRIPOS>MOLECULE
ASD00069308
  93   97    0    0    0
SMALL
NO_CHARGES


@<TRIPOS>ATOM
   1 C1            -0.0530     1.5810     0.0011 C.3     
   2 C2             0.0046     0.0734    -0.1099 C.3     
   3 C3             0.6112    -0.2693    -1.4994 C.3     
   4 C4             2.0656     0.1681    -1.4487 C.3     
   5 C5             2.0697     1.6912    -1.2363 C.3     
   6 N6             1.3392     2.0742    -0.0274 N.3     
   7 N7            -1.2414    -0.6714    -0.0759 N.am    
   8 C8             0.3746    -1.7865    -1.5277 C.3     
   9 C9            -1.0356    -1.8977    -0.8841 C.3     
  10 C10           -2.3708    -0.3157     0.5680 C.2     
  11 O11           -2.4090     0.7216     1.1996 O.2     
  12 O12           -3.4566    -1.1098     0.5113 O.3     
  13 C13            1.3847     3.4605     0.1686 C.ar    
  14 C14            0.7350     4.3110    -0.7167 C.ar    
  15 C15            0.7815     5.6799    -0.5200 C.ar    
  16 C16            1.4740     6.2045     0.5563 C.ar    
  17 C17            2.1234     5.3649     1.4413 C.ar    
  18 C18            2.0773     3.9905     1.2559 C.ar    
  19 C19            3.8842     3.5258     2.7339 C.2     
  20 O20            4.4122     4.5689     2.3989 O.2     
  21 N21            2.7302     3.1384     2.1553 N.am    
  22 C22            4.5064     2.6850     3.7728 C.2     
  23 N23            4.0355     1.5415     4.2185 N.2     
  24 C24            4.8634     1.0647     5.1565 C.2     
  25 C25            5.8947     1.9508     5.3005 C.2     
  26 N26            5.6733     2.9610     4.4302 N.pl3   
  27 C27            6.5248     4.1363     4.2303 C.3     
  28 O28            7.6529     4.0615     5.1042 O.3     
  29 C29            8.5521     5.1661     4.9885 C.3     
  30 C30            9.7154     4.9811     5.9649 C.3     
  31 Si31          10.8877     6.4212     5.8140 Si      
  32 C32            9.9855     8.0011     6.2150 C.3     
  33 C33           12.3042     6.1960     7.0029 C.3     
  34 C34           11.5457     6.5065     4.0731 C.3     
  35 C35            3.4701    -2.2018     6.3962 C.ar    
  36 C36            3.5911    -1.0320     5.6750 C.ar    
  37 C37            4.6915    -0.2023     5.9084 C.ar    
  38 C38            5.6261    -0.5995     6.8695 C.ar    
  39 C39            5.4281    -1.7853     7.5453 C.ar    
  40 N40            4.3750    -2.5401     7.2948 N.ar    
  41 C41            2.2852    -3.1023     6.1589 C.3     
  42 F42            0.0584     3.8020    -1.7695 F       
  43 C43           -4.6376    -0.6638     1.2287 C.3     
  44 C44           -5.0889     0.6898     0.6764 C.3     
  45 C45           -5.7602    -1.6878     1.0493 C.3     
  46 C46           -4.3081    -0.5235     2.7162 C.3     
  47 H47           -0.6105     1.9941    -0.8395 H       
  48 H48           -0.5288     1.8662     0.9394 H       
  49 H49            0.6601    -0.3168     0.6687 H       
  50 H50            0.0769     0.2384    -2.3024 H       
  51 H51            2.5733    -0.3243    -0.6194 H       
  52 H52            2.5609    -0.0778    -2.3880 H       
  53 H53            3.1006     2.0352    -1.1522 H       
  54 H54            1.6061     2.1711    -2.0983 H       
  55 H55            0.3672    -2.1613    -2.5512 H       
  56 H56            1.1197    -2.3089    -0.9277 H       
  57 H57           -1.0828    -2.7776    -0.2426 H       
  58 H58           -1.7954    -1.9611    -1.6630 H       
  59 H59            0.2760     6.3405    -1.2088 H       
  60 H60            1.5077     7.2736     0.7053 H       
  61 H61            2.6637     5.7786     2.2800 H       
  62 H62            2.3518     2.2695     2.3619 H       
  63 H63            6.7303     1.8589     5.9785 H       
  64 H64            6.8677     4.1649     3.1960 H       
  65 H65            5.9548     5.0393     4.4492 H       
  66 H66            8.9370     5.2160     3.9700 H       
  67 H67            8.0242     6.0904     5.2231 H       
  68 H68            9.3304     4.9312     6.9834 H       
  69 H69           10.2433     4.0568     5.7303 H       
  70 H70            9.6005     7.9511     7.2336 H       
  71 H71           10.6714     8.8436     6.1267 H       
  72 H72            9.1567     8.1328     5.5194 H       
  73 H73           12.8321     5.2717     6.7683 H       
  74 H74           12.9901     7.0386     6.9146 H       
  75 H75           11.9193     6.1461     8.0215 H       
  76 H76           10.7169     6.6383     3.3775 H       
  77 H77           12.2315     7.3491     3.9849 H       
  78 H78           12.0735     5.5822     3.8385 H       
  79 H79            2.8468    -0.7615     4.9407 H       
  80 H80            6.4904     0.0131     7.0794 H       
  81 H81            6.1447    -2.1007     8.2893 H       
  82 H82            2.5264    -3.8213     5.3759 H       
  83 H83            2.0433    -3.6345     7.0789 H       
  84 H84            1.4291    -2.5025     5.8501 H       
  85 H85           -5.3236     0.5898    -0.3833 H       
  86 H86           -5.9755     1.0245     1.2149 H       
  87 H87           -4.2891     1.4192     0.8041 H       
  88 H88           -5.4386    -2.6521     1.4428 H       
  89 H89           -6.6468    -1.3530     1.5879 H       
  90 H90           -5.9949    -1.7877    -0.0104 H       
  91 H91           -3.5083     0.2060     2.8439 H       
  92 H92           -5.1947    -0.1887     3.2547 H       
  93 H93           -3.9865    -1.4878     3.1096 H       
@<TRIPOS>BOND
   1    1    2 1
   2    1    6 1
   3    1   47 1
   4    1   48 1
   5    2    3 1
   6    2    7 1
   7    2   49 1
   8    3    4 1
   9    3    8 1
  10    3   50 1
  11    4    5 1
  12    4   51 1
  13    4   52 1
  14    5    6 1
  15    5   53 1
  16    5   54 1
  17    6   13 1
  18    7    9 1
  19    7   10 am
  20    8    9 1
  21    8   55 1
  22    8   56 1
  23    9   57 1
  24    9   58 1
  25   10   11 2
  26   10   12 1
  27   12   43 1
  28   13   14 ar
  29   13   18 ar
  30   14   15 ar
  31   14   42 1
  32   15   16 ar
  33   15   59 1
  34   16   17 ar
  35   16   60 1
  36   17   18 ar
  37   17   61 1
  38   18   21 1
  39   19   20 2
  40   19   21 am
  41   19   22 1
  42   21   62 1
  43   22   23 2
  44   22   26 1
  45   23   24 1
  46   24   25 2
  47   24   37 1
  48   25   26 1
  49   25   63 1
  50   26   27 1
  51   27   28 1
  52   27   64 1
  53   27   65 1
  54   28   29 1
  55   29   30 1
  56   29   66 1
  57   29   67 1
  58   30   31 1
  59   30   68 1
  60   30   69 1
  61   31   32 1
  62   31   33 1
  63   31   34 1
  64   32   70 1
  65   32   71 1
  66   32   72 1
  67   33   73 1
  68   33   74 1
  69   33   75 1
  70   34   76 1
  71   34   77 1
  72   34   78 1
  73   35   36 ar
  74   35   40 ar
  75   35   41 1
  76   36   37 ar
  77   36   79 1
  78   37   38 ar
  79   38   39 ar
  80   38   80 1
  81   39   40 ar
  82   39   81 1
  83   41   82 1
  84   41   83 1
  85   41   84 1
  86   43   44 1
  87   43   46 1
  88   43   45 1
  89   44   85 1
  90   44   86 1
  91   44   87 1
  92   45   88 1
  93   45   89 1
  94   45   90 1
  95   46   91 1
  96   46   92 1
  97   46   93 1

#	End of record

