#	Name: ASD01881394
#	Creating user name:	WinNT
#	Creation time:	15. 06. 2019 19:42

#	Modifying user name:	WinNT
#	Modification time:	15. 06. 2019 19:42

#	Program:	/corina/corina34_cracker 3.40 0067  02.08.2006

@<TRIPOS>MOLECULE
ASD01881394
  36   38    0    0    0
SMALL
NO_CHARGES


@<TRIPOS>ATOM
   1 C1             2.1923     1.3257    -1.3913 C.3     
   2 C2             1.6501     2.0342    -0.1484 C.3     
   3 C3             2.3901     1.5274     1.0912 C.3     
   4 C4             2.1775     0.0187     1.2307 C.3     
   5 C5             2.7197    -0.6899    -0.0122 C.3     
   6 C6             1.9797    -0.1830    -1.2518 C.3     
   7 O7             1.5011     1.7991    -2.5490 O.3     
   8 O8             4.4457     0.2162     4.6917 O.3     
   9 C9             4.9907    -0.5973     3.6476 C.3     
  10 C10            4.3244    -0.1814     2.3296 C.3     
  11 N11            2.8879    -0.4680     2.4208 N.3     
  12 C12            2.3207     0.0500     3.5901 C.ar    
  13 C13            3.0939     0.3785     4.6976 C.ar    
  14 C14            0.9431     0.2367     3.6355 C.ar    
  15 C15            0.3466     0.7420     4.7740 C.ar    
  16 C16            1.1173     1.0654     5.8758 C.ar    
  17 C17            2.4877     0.8842     5.8384 C.ar    
  18 Br18           0.2971     1.7560     7.4335 Br      
  19 H19            3.2572     1.5347    -1.4931 H       
  20 H20            1.8015     3.1091    -0.2478 H       
  21 H21            0.5851     1.8253    -0.0465 H       
  22 H22            3.4550     1.7364     0.9893 H       
  23 H23            2.0038     2.0322     1.9766 H       
  24 H24            1.1125    -0.1903     1.3325 H       
  25 H25            3.7846    -0.4809    -0.1141 H       
  26 H26            2.5682    -1.7647     0.0872 H       
  27 H27            0.9147    -0.3920    -1.1499 H       
  28 H28            2.3659    -0.6878    -2.1373 H       
  29 H29            1.7940     1.3920    -3.3758 H       
  30 H30            6.0674    -0.4406     3.5821 H       
  31 H31            4.7819    -1.6475     3.8513 H       
  32 H32            4.4752     0.8853     2.1639 H       
  33 H33            4.7587    -0.7474     1.5055 H       
  34 H34            0.3377    -0.0141     2.7771 H       
  35 H35           -0.7235     0.8852     4.8038 H       
  36 H36            3.0879     1.1371     6.6999 H       
@<TRIPOS>BOND
   1    1    2 1
   2    1    6 1
   3    1    7 1
   4    1   19 1
   5    2    3 1
   6    2   20 1
   7    2   21 1
   8    3    4 1
   9    3   22 1
  10    3   23 1
  11    4    5 1
  12    4   11 1
  13    4   24 1
  14    5    6 1
  15    5   25 1
  16    5   26 1
  17    6   27 1
  18    6   28 1
  19    7   29 1
  20    8    9 1
  21    8   13 1
  22    9   10 1
  23    9   30 1
  24    9   31 1
  25   10   11 1
  26   10   32 1
  27   10   33 1
  28   11   12 1
  29   12   13 ar
  30   12   14 ar
  31   13   17 ar
  32   14   15 ar
  33   14   34 1
  34   15   16 ar
  35   15   35 1
  36   16   17 ar
  37   16   18 1
  38   17   36 1

#	End of record

