#	Name: ASD03080134
#	Creating user name:	WinNT
#	Creation time:	15. 06. 2019 20:26

#	Modifying user name:	WinNT
#	Modification time:	15. 06. 2019 20:26

#	Program:	/corina/corina34_cracker 3.40 0067  02.08.2006

@<TRIPOS>MOLECULE
ASD03080134
  18   19    0    0    0
SMALL
NO_CHARGES


@<TRIPOS>ATOM
   1 C1            -0.0166     1.3707     0.0096 C.ar    
   2 C2             0.0021    -0.0041     0.0020 C.ar    
   3 C3             1.1842     2.0905     0.0020 C.ar    
   4 C4             2.4064     1.4072    -0.0133 C.ar    
   5 C5             2.3910    -0.0089    -0.0200 C.ar    
   6 C6             1.2128    -0.6862    -0.0132 C.ar    
   7 S7             1.4790     3.8255     0.0084 S.3     
   8 C8             3.2166     3.5808    -0.0094 C.2     
   9 C9             3.5094     2.2755    -0.0192 C.2     
  10 O10            3.8108     5.9475    -0.0028 O.3     
  11 C11            4.2121     4.6602    -0.0136 C.2     
  12 O12            5.3981     4.3932    -0.0267 O.2     
  13 Cl13          -1.5328     2.2160     0.0213 Cl      
  14 H14           -0.9266    -0.5553     0.0083 H       
  15 H15            3.3228    -0.5548    -0.0318 H       
  16 H16            1.2175    -1.7662    -0.0184 H       
  17 H17            4.5269     1.9138    -0.0312 H       
  18 H18            4.5027     6.6230    -0.0061 H       
@<TRIPOS>BOND
   1    1    2 ar
   2    1    3 ar
   3    1   13 1
   4    2    6 ar
   5    2   14 1
   6    3    4 ar
   7    3    7 1
   8    4    5 ar
   9    4    9 1
  10    5    6 ar
  11    5   15 1
  12    6   16 1
  13    7    8 1
  14    8    9 2
  15    8   11 1
  16    9   17 1
  17   10   11 1
  18   10   18 1
  19   11   12 2

#	End of record

