#	Name: ASD01884594
#	Creating user name:	WinNT
#	Creation time:	15. 06. 2019 19:48

#	Modifying user name:	WinNT
#	Modification time:	15. 06. 2019 19:48

#	Program:	/corina/corina34_cracker 3.40 0067  02.08.2006

@<TRIPOS>MOLECULE
ASD01884594
  41   43    0    0    0
SMALL
NO_CHARGES


@<TRIPOS>ATOM
   1 C1             0.2309     1.6038    -1.4284 C.2     
   2 C2             0.4247     0.4614    -2.1464 C.2     
   3 C3             1.6911    -0.1448    -2.1456 C.2     
   4 C4             2.7022     0.4053    -1.4373 C.2     
   5 N5             2.5066     1.5481    -0.7190 N.am    
   6 C6             1.3028     2.1515    -0.7018 C.2     
   7 O7             1.1421     3.1731    -0.0550 O.2     
   8 C8             3.5287     2.0790    -0.0191 C.2     
   9 C9             1.9227    -1.4084    -2.9335 C.3     
  10 C10            1.5120    -2.5989    -2.1058 C.ar    
  11 C11            0.2138    -3.0703    -2.1714 C.ar    
  12 C12           -0.1652    -4.1614    -1.4136 C.ar    
  13 C13            0.7580    -4.7843    -0.5864 C.ar    
  14 C14            2.0600    -4.3094    -0.5223 C.ar    
  15 C15            2.4354    -3.2214    -1.2864 C.ar    
  16 O16            0.3876    -5.8576     0.1604 O.3     
  17 C17            1.3905    -6.4486     0.9892 C.3     
  18 C18            4.8125     1.3555     0.0767 C.ar    
  19 O19            3.3940     3.1526     0.5328 O.2     
  20 C20            6.0192     2.0500    -0.0345 C.ar    
  21 C21            4.8257    -0.0255     0.2846 C.ar    
  22 C22            6.0285    -0.6949     0.3731 C.ar    
  23 C23            7.2202    -0.0013     0.2563 C.ar    
  24 C24            7.2146     1.3679     0.0559 C.ar    
  25 H25           -0.7354     2.0860    -1.4212 H       
  26 H26           -0.3877     0.0268    -2.7100 H       
  27 H27            3.6745    -0.0649    -1.4398 H       
  28 H28            1.3303    -1.3800    -3.8481 H       
  29 H29            2.9795    -1.4897    -3.1875 H       
  30 H30           -0.5046    -2.5848    -2.8153 H       
  31 H31           -1.1794    -4.5291    -1.4649 H       
  32 H32            2.7805    -4.7926     0.1209 H       
  33 H33            3.4488    -2.8513    -1.2369 H       
  34 H34            1.7559    -5.7085     1.7012 H       
  35 H35            0.9636    -7.2932     1.5300 H       
  36 H36            2.2170    -6.7948     0.3687 H       
  37 H37            6.0163     3.1186    -0.1913 H       
  38 H38            3.8964    -0.5680     0.3763 H       
  39 H39            6.0402    -1.7627     0.5342 H       
  40 H40            8.1591    -0.5304     0.3263 H       
  41 H41            8.1484     1.9030    -0.0344 H       
@<TRIPOS>BOND
   1    1    2 2
   2    1    6 1
   3    1   25 1
   4    2    3 1
   5    2   26 1
   6    3    4 2
   7    3    9 1
   8    4    5 1
   9    4   27 1
  10    5    6 am
  11    5    8 am
  12    6    7 2
  13    8   18 1
  14    8   19 2
  15    9   10 1
  16    9   28 1
  17    9   29 1
  18   10   11 ar
  19   10   15 ar
  20   11   12 ar
  21   11   30 1
  22   12   13 ar
  23   12   31 1
  24   13   14 ar
  25   13   16 1
  26   14   15 ar
  27   14   32 1
  28   15   33 1
  29   16   17 1
  30   17   34 1
  31   17   35 1
  32   17   36 1
  33   18   20 ar
  34   18   21 ar
  35   20   24 ar
  36   20   37 1
  37   21   22 ar
  38   21   38 1
  39   22   23 ar
  40   22   39 1
  41   23   24 ar
  42   23   40 1
  43   24   41 1

#	End of record

