#	Name: ASD04591016
#	Creating user name:	WinNT
#	Creation time:	15. 06. 2019 20:51

#	Modifying user name:	WinNT
#	Modification time:	15. 06. 2019 20:51

#	Program:	/corina/corina34_cracker 3.40 0067  02.08.2006

@<TRIPOS>MOLECULE
ASD04591016
  58   63    0    0    0
SMALL
NO_CHARGES


@<TRIPOS>ATOM
   1 N1            -0.0171     1.3229    -0.0119 N.ar    
   2 C2             0.0017    -0.0035    -0.0051 C.ar    
   3 N3             1.1297    -0.6952    -0.0123 N.ar    
   4 C4             2.3048    -0.0728    -0.0266 C.ar    
   5 C5             2.3180     1.3354    -0.0341 C.ar    
   6 C6             1.1079     2.0199    -0.0261 C.ar    
   7 N7             3.6036    -0.5177    -0.0362 N.pl3   
   8 C8             4.4824     0.5537    -0.0498 C.ar    
   9 C9             3.7335     1.7403    -0.0491 C.ar    
  10 C10            5.8713     0.6252    -0.0636 C.ar    
  11 C11            6.4997     1.8521    -0.0760 C.ar    
  12 C12            5.7585     3.0235    -0.0753 C.ar    
  13 C13            4.3811     2.9731    -0.0622 C.ar    
  14 N14           -1.2025    -0.6889     0.0103 N.pl3   
  15 C15           -2.4023     0.0120     0.1313 C.ar    
  16 N16           -2.3785     1.3197     0.3319 N.ar    
  17 C17           -3.4885     2.0231     0.4522 C.ar    
  18 C18           -4.7293     1.4090     0.3721 C.ar    
  19 C19           -4.7939     0.0324     0.1614 C.ar    
  20 C20           -3.6099    -0.6707     0.0340 C.ar    
  21 N21           -5.9023     2.1620     0.5017 N.3     
  22 C22           -5.5950     3.5829     0.7169 C.3     
  23 C23           -6.8996     4.3813     0.7738 C.3     
  24 N24           -7.7442     3.8582     1.8567 N.3     
  25 C25           -8.0515     2.4373     1.6415 C.3     
  26 C26           -6.7469     1.6389     1.5847 C.3     
  27 C27            4.0041    -1.9269    -0.0325 C.3     
  28 C28            3.4639    -2.6252     1.2278 C.3     
  29 C29            2.5324    -3.7544     0.7409 C.3     
  30 C30            3.0256    -4.0610    -0.6950 C.3     
  31 C31            3.3820    -2.6562    -1.2413 C.3     
  32 H32            1.0863     3.0996    -0.0319 H       
  33 H33            6.4582    -0.2815    -0.0643 H       
  34 H34            7.5786     1.9011    -0.0859 H       
  35 H35            6.2620     3.9790    -0.0850 H       
  36 H36            3.8058     3.8871    -0.0613 H       
  37 H37           -1.2111    -1.6561    -0.0630 H       
  38 H38           -3.4300     3.0891     0.6153 H       
  39 H39           -5.7464    -0.4723     0.0948 H       
  40 H40           -3.6229    -1.7380    -0.1303 H       
  41 H41           -5.0557     3.7000     1.6569 H       
  42 H42           -4.9794     3.9502    -0.1042 H       
  43 H43           -6.6754     5.4312     0.9622 H       
  44 H44           -7.4258     4.2862    -0.1760 H       
  45 H45           -7.3095     4.0020     2.7559 H       
  46 H46           -8.6671     2.0700     2.4626 H       
  47 H47           -8.5908     2.3202     0.7016 H       
  48 H48           -6.9711     0.5890     1.3962 H       
  49 H49           -6.2207     1.7340     2.5345 H       
  50 H50            5.0907    -2.0061    -0.0665 H       
  51 H51            4.2882    -3.0439     1.8050 H       
  52 H52            2.9037    -1.9155     1.8367 H       
  53 H53            2.6356    -4.6344     1.3758 H       
  54 H54            1.4970    -3.4142     0.7242 H       
  55 H55            3.9071    -4.7017    -0.6721 H       
  56 H56            2.2315    -4.5158    -1.2873 H       
  57 H57            2.4838    -2.1387    -1.5782 H       
  58 H58            4.1053    -2.7348    -2.0529 H       
@<TRIPOS>BOND
   1    1    2 ar
   2    1    6 ar
   3    2    3 ar
   4    2   14 1
   5    3    4 ar
   6    4    5 ar
   7    4    7 1
   8    5    6 ar
   9    5    9 1
  10    6   32 1
  11    7    8 1
  12    7   27 1
  13    8    9 ar
  14    8   10 ar
  15    9   13 ar
  16   10   11 ar
  17   10   33 1
  18   11   12 ar
  19   11   34 1
  20   12   13 ar
  21   12   35 1
  22   13   36 1
  23   14   15 1
  24   14   37 1
  25   15   16 ar
  26   15   20 ar
  27   16   17 ar
  28   17   18 ar
  29   17   38 1
  30   18   19 ar
  31   18   21 1
  32   19   20 ar
  33   19   39 1
  34   20   40 1
  35   21   22 1
  36   21   26 1
  37   22   23 1
  38   22   41 1
  39   22   42 1
  40   23   24 1
  41   23   43 1
  42   23   44 1
  43   24   25 1
  44   24   45 1
  45   25   26 1
  46   25   46 1
  47   25   47 1
  48   26   48 1
  49   26   49 1
  50   27   28 1
  51   27   31 1
  52   27   50 1
  53   28   29 1
  54   28   51 1
  55   28   52 1
  56   29   30 1
  57   29   53 1
  58   29   54 1
  59   30   31 1
  60   30   55 1
  61   30   56 1
  62   31   57 1
  63   31   58 1

#	End of record

