#	Name: ASD01510091
#	Creating user name:	WinNT
#	Creation time:	15. 06. 2019 19:21

#	Modifying user name:	WinNT
#	Modification time:	15. 06. 2019 19:21

#	Program:	/corina/corina34_cracker 3.40 0067  02.08.2006

@<TRIPOS>MOLECULE
ASD01510091
  66   69    0    0    0
SMALL
NO_CHARGES


@<TRIPOS>ATOM
   1 C1            -0.0679     1.7807    -0.6667 C.3     
   2 O2             0.0488     0.3704    -0.4686 O.3     
   3 C3            -1.0991    -0.3176    -0.2481 C.ar    
   4 N4            -2.2682     0.3134    -0.2219 N.ar    
   5 C5            -3.3936    -0.3507    -0.0073 C.ar    
   6 N6            -3.4048    -1.6603     0.1891 N.ar    
   7 C7            -2.2757    -2.3607     0.1774 C.ar    
   8 C8            -1.0695    -1.6982    -0.0512 C.ar    
   9 S9             0.4549    -2.5815    -0.0772 S.3     
  10 C10            0.6196    -3.0382    -1.7709 C.ar    
  11 C11           -0.3580    -2.6716    -2.6890 C.ar    
  12 C12           -0.2291    -3.0296    -4.0170 C.ar    
  13 C13            0.8704    -3.7531    -4.4372 C.ar    
  14 C14            1.8511    -4.1233    -3.5248 C.ar    
  15 C15            1.7290    -3.7602    -2.1918 C.ar    
  16 N16            2.9637    -4.8568    -3.9516 N.am    
  17 C17            3.4962    -4.6266    -5.1682 C.2     
  18 O18            2.9615    -3.8452    -5.9262 O.2     
  19 C19            4.7558    -5.3402    -5.5866 C.3     
  20 C20            5.1441    -4.9030    -7.0004 C.3     
  21 C21            6.4230    -5.6275    -7.4252 C.3     
  22 C22            7.5532    -5.2782    -6.4550 C.3     
  23 C23            7.1650    -5.7155    -5.0411 C.3     
  24 C24            5.8861    -4.9910    -4.6163 C.3     
  25 O25           -2.2962    -3.7017     0.3794 O.3     
  26 C26           -3.5725    -4.3051     0.6005 C.3     
  27 N27           -4.5932     0.3443     0.0129 N.3     
  28 C28           -5.7226    -0.5618     0.2640 C.3     
  29 C29           -7.0152     0.2524     0.3577 C.3     
  30 N30           -7.2116     1.0004    -0.8919 N.3     
  31 C31           -6.0821     1.9064    -1.1430 C.3     
  32 C32           -4.7895     1.0923    -1.2367 C.3     
  33 C33           -8.4825     1.7367    -0.8705 C.3     
  34 H34            0.9214     2.2075    -0.8320 H       
  35 H35           -0.6971     1.9747    -1.5354 H       
  36 H36           -0.5170     2.2357     0.2161 H       
  37 H37           -1.2190    -2.1067    -2.3636 H       
  38 H38           -0.9898    -2.7437    -4.7283 H       
  39 H39            0.9677    -4.0316    -5.4761 H       
  40 H40            2.4898    -4.0468    -1.4809 H       
  41 H41            3.3517    -5.5308    -3.3720 H       
  42 H42            4.5851    -6.4167    -5.5732 H       
  43 H43            4.3388    -5.1518    -7.6917 H       
  44 H44            5.3148    -3.8265    -7.0138 H       
  45 H45            6.2523    -6.7039    -7.4119 H       
  46 H46            6.6995    -5.3159    -8.4325 H       
  47 H47            8.4643    -5.7944    -6.7576 H       
  48 H48            7.7239    -4.2018    -6.4684 H       
  49 H49            6.9943    -6.7920    -5.0277 H       
  50 H50            7.9702    -5.4667    -4.3499 H       
  51 H51            6.0568    -3.9145    -4.6297 H       
  52 H52            5.6095    -5.3025    -3.6091 H       
  53 H53           -4.2122    -4.1294    -0.2644 H       
  54 H54           -3.4468    -5.3778     0.7475 H       
  55 H55           -4.0322    -3.8683     1.4871 H       
  56 H56           -5.8026    -1.2784    -0.5534 H       
  57 H57           -5.5599    -1.0949     1.2007 H       
  58 H58           -7.8582    -0.4205     0.5150 H       
  59 H59           -6.9458     0.9502     1.1922 H       
  60 H60           -6.2448     2.4395    -2.0797 H       
  61 H61           -6.0021     2.6230    -0.3256 H       
  62 H62           -3.9465     1.7652    -1.3940 H       
  63 H63           -4.8589     0.3945    -2.0711 H       
  64 H64           -8.4806     2.4407    -0.0384 H       
  65 H65           -8.6026     2.2814    -1.8070 H       
  66 H66           -9.3073     1.0344    -0.7503 H       
@<TRIPOS>BOND
   1    1    2 1
   2    1   34 1
   3    1   35 1
   4    1   36 1
   5    2    3 1
   6    3    4 ar
   7    3    8 ar
   8    4    5 ar
   9    5    6 ar
  10    5   27 1
  11    6    7 ar
  12    7    8 ar
  13    7   25 1
  14    8    9 1
  15    9   10 1
  16   10   11 ar
  17   10   15 ar
  18   11   12 ar
  19   11   37 1
  20   12   13 ar
  21   12   38 1
  22   13   14 ar
  23   13   39 1
  24   14   15 ar
  25   14   16 1
  26   15   40 1
  27   16   17 am
  28   16   41 1
  29   17   18 2
  30   17   19 1
  31   19   20 1
  32   19   24 1
  33   19   42 1
  34   20   21 1
  35   20   43 1
  36   20   44 1
  37   21   22 1
  38   21   45 1
  39   21   46 1
  40   22   23 1
  41   22   47 1
  42   22   48 1
  43   23   24 1
  44   23   49 1
  45   23   50 1
  46   24   51 1
  47   24   52 1
  48   25   26 1
  49   26   53 1
  50   26   54 1
  51   26   55 1
  52   27   28 1
  53   27   32 1
  54   28   29 1
  55   28   56 1
  56   28   57 1
  57   29   30 1
  58   29   58 1
  59   29   59 1
  60   30   31 1
  61   30   33 1
  62   31   32 1
  63   31   60 1
  64   31   61 1
  65   32   62 1
  66   32   63 1
  67   33   64 1
  68   33   65 1
  69   33   66 1

#	End of record

