#	Name: ASD04882470
#	Creating user name:	WinNT
#	Creation time:	15. 06. 2019 20:54

#	Modifying user name:	WinNT
#	Modification time:	15. 06. 2019 20:54

#	Program:	/corina/corina34_cracker 3.40 0067  02.08.2006

@<TRIPOS>MOLECULE
ASD04882470
  83   88    0    0    0
SMALL
NO_CHARGES


@<TRIPOS>ATOM
   1 C1            -0.0215     1.4012    -0.0093 C.ar    
   2 C2            -0.0116     0.0036    -0.0052 C.ar    
   3 C3            -1.2094    -0.7019    -0.0164 C.ar    
   4 C4            -2.4097    -0.0268    -0.0315 C.ar    
   5 C5            -2.4267     1.3708    -0.0352 C.ar    
   6 C6            -1.2239     2.0825    -0.0187 C.ar    
   7 N7             1.1997    -0.6830     0.0096 N.3     
   8 C8             1.3070    -1.5362     1.2013 C.3     
   9 C9             1.3722    -1.4732    -1.2174 C.3     
  10 C10            2.7461    -2.1474    -1.1979 C.3     
  11 N11            2.8533    -3.0006    -0.0062 N.3     
  12 C12            2.6808    -2.2104     1.2208 C.3     
  13 C13           -3.7126     2.0938    -0.0514 C.2     
  14 O14           -3.7265     3.3096    -0.0546 O.2     
  15 N15           -4.8720     1.4066    -0.0627 N.am    
  16 N16            1.1866     2.1110     0.0021 N.am    
  17 C17            4.0683    -3.6893     0.0087 C.ar    
  18 C18            4.0810    -5.0782     0.0127 C.ar    
  19 C19            5.2844    -5.7562     0.0269 C.ar    
  20 C20            6.4753    -5.0539     0.0376 C.ar    
  21 C21            6.4662    -3.6708     0.0336 C.ar    
  22 C22            5.2669    -2.9868     0.0136 C.ar    
  23 C23            1.2296     3.3599     0.5068 C.2     
  24 C24            2.5162     4.0732     0.6000 C.2     
  25 O25            0.2069     3.8985     0.8853 O.2     
  26 C26            2.7107     5.3300     1.0850 C.2     
  27 O27            4.0247     5.5881     0.9873 O.3     
  28 C28            4.6245     4.5143     0.4543 C.2     
  29 N29            3.7337     3.5970     0.2228 N.2     
  30 C30            6.0997     4.3885     0.1735 C.3     
  31 C31            2.7835    -5.8445     0.0021 C.3     
  32 C32            6.7234     5.3973    -0.7931 C.3     
  33 C33            7.0167     5.4917     0.7056 C.3     
  34 C34           -6.1489     2.1245    -0.0788 C.3     
  35 C35           -7.2830     1.1321    -0.0891 C.ar    
  36 C36           -7.8793     0.7642     1.1019 C.ar    
  37 C37           -8.9221    -0.1496     1.0815 C.ar    
  38 C38           -9.3274    -0.6611    -0.1416 C.ar    
  39 C39           -8.6832    -0.2460    -1.2920 C.ar    
  40 N40           -7.6985     0.6290    -1.2352 N.ar    
  41 C41           -9.1151    -0.7957    -2.6271 C.3     
  42 N42          -10.0750     0.1262    -3.2489 N.3     
  43 C43          -10.3380    -0.2501    -4.6443 C.3     
  44 C44          -11.3227     0.1872    -2.4759 C.3     
  45 H45           -1.1986    -1.7818    -0.0136 H       
  46 H46           -3.3385    -0.5777    -0.0409 H       
  47 H47           -1.2340     3.1625    -0.0211 H       
  48 H48            1.1884    -0.9264     2.0970 H       
  49 H49            0.5282    -2.2983     1.1742 H       
  50 H50            0.5942    -2.2346    -1.2720 H       
  51 H51            1.3013    -0.8174    -2.0852 H       
  52 H52            2.8646    -2.7572    -2.0936 H       
  53 H53            3.5249    -1.3853    -1.1708 H       
  54 H54            3.4588    -1.4490     1.2754 H       
  55 H55            2.7518    -2.8662     2.0886 H       
  56 H56           -4.8609     0.4366    -0.0602 H       
  57 H57            1.9919     1.7035    -0.3533 H       
  58 H58            5.2950    -6.8361     0.0301 H       
  59 H59            7.4148    -5.5865     0.0494 H       
  60 H60            7.3983    -3.1253     0.0423 H       
  61 H61            5.2605    -1.9068     0.0102 H       
  62 H62            1.9525     5.9933     1.4742 H       
  63 H63            6.4908     3.3711     0.1608 H       
  64 H64            2.4808    -6.0322    -1.0281 H       
  65 H65            2.9181    -6.7941     0.5200 H       
  66 H66            2.0131    -5.2615     0.5067 H       
  67 H67            7.5250     5.0436    -1.4415 H       
  68 H68            6.0666     6.1519    -1.2259 H       
  69 H69            6.5529     6.3084     1.2587 H       
  70 H70            8.0113     5.2002     1.0431 H       
  71 H71           -6.2238     2.7526     0.8088 H       
  72 H72           -6.2038     2.7482    -0.9710 H       
  73 H73           -7.5373     1.1828     2.0369 H       
  74 H74           -9.4068    -0.4559     1.9968 H       
  75 H75          -10.1360    -1.3750    -0.1949 H       
  76 H76           -8.2446    -0.9046    -3.2739 H       
  77 H77           -9.5857    -1.7685    -2.4844 H       
  78 H78          -10.7504    -1.2585    -4.6771 H       
  79 H79          -11.0517     0.4487    -5.0806 H       
  80 H80           -9.4071    -0.2196    -5.2105 H       
  81 H81          -11.1076     0.5356    -1.4657 H       
  82 H82          -12.0155     0.8768    -2.9583 H       
  83 H83          -11.7707    -0.8054    -2.4302 H       
@<TRIPOS>BOND
   1    1    2 ar
   2    1   16 1
   3    1    6 ar
   4    2    3 ar
   5    2    7 1
   6    3    4 ar
   7    3   45 1
   8    4    5 ar
   9    4   46 1
  10    5    6 ar
  11    5   13 1
  12    6   47 1
  13    7    8 1
  14    7    9 1
  15    8   12 1
  16    8   48 1
  17    8   49 1
  18    9   10 1
  19    9   50 1
  20    9   51 1
  21   10   11 1
  22   10   52 1
  23   10   53 1
  24   11   12 1
  25   11   17 1
  26   12   54 1
  27   12   55 1
  28   13   14 2
  29   13   15 am
  30   15   34 1
  31   15   56 1
  32   16   23 am
  33   16   57 1
  34   17   18 ar
  35   17   22 ar
  36   18   19 ar
  37   18   31 1
  38   19   20 ar
  39   19   58 1
  40   20   21 ar
  41   20   59 1
  42   21   22 ar
  43   21   60 1
  44   22   61 1
  45   23   24 1
  46   23   25 2
  47   24   26 2
  48   24   29 1
  49   26   27 1
  50   26   62 1
  51   27   28 1
  52   28   29 2
  53   28   30 1
  54   30   32 1
  55   30   33 1
  56   30   63 1
  57   31   64 1
  58   31   65 1
  59   31   66 1
  60   32   33 1
  61   32   67 1
  62   32   68 1
  63   33   69 1
  64   33   70 1
  65   34   35 1
  66   34   71 1
  67   34   72 1
  68   35   36 ar
  69   35   40 ar
  70   36   37 ar
  71   36   73 1
  72   37   38 ar
  73   37   74 1
  74   38   39 ar
  75   38   75 1
  76   39   40 ar
  77   39   41 1
  78   41   42 1
  79   41   76 1
  80   41   77 1
  81   42   43 1
  82   42   44 1
  83   43   78 1
  84   43   79 1
  85   43   80 1
  86   44   81 1
  87   44   82 1
  88   44   83 1

#	End of record

