#	Name: ASD01914615
#	Creating user name:	WinNT
#	Creation time:	15. 06. 2019 20:03

#	Modifying user name:	WinNT
#	Modification time:	15. 06. 2019 20:03

#	Program:	/corina/corina34_cracker 3.40 0067  02.08.2006

@<TRIPOS>MOLECULE
ASD01914615
  62   67    0    0    0
SMALL
NO_CHARGES


@<TRIPOS>ATOM
   1 N1            -0.0153     1.2796     0.0091 N.pl3   
   2 N2             0.0021    -0.0041     0.0020 N.2     
   3 C3             1.2288    -0.4796    -0.0122 C.2     
   4 C4             2.1238     0.6851    -0.0145 C.ar    
   5 C5             3.5020     0.8795    -0.0266 C.ar    
   6 C6             4.0028     2.1516    -0.0246 C.ar    
   7 C7             3.1479     3.2463    -0.0101 C.ar    
   8 C8             1.7917     3.0774     0.0024 C.ar    
   9 C9             1.2550     1.7938    -0.0003 C.ar    
  10 C10            1.6260    -1.8989    -0.0232 C.2     
  11 O11            2.8041    -2.2005    -0.0357 O.2     
  12 N12            0.6837    -2.8624    -0.0195 N.am    
  13 C13            1.0785    -4.2732    -0.0304 C.3     
  14 C14           -0.1732    -5.1531    -0.0233 C.3     
  15 C15            0.2392    -6.6265    -0.0347 C.3     
  16 C16            1.0827    -6.9296     1.2052 C.3     
  17 C17            2.3343    -6.0497     1.1982 C.3     
  18 C18            3.1547    -6.3399    -0.0602 C.3     
  19 C19            2.3112    -6.0368    -1.3002 C.3     
  20 C20            1.8989    -4.5635    -1.2888 C.3     
  21 C21            1.0596    -6.9167    -1.2931 C.3     
  22 C22            1.9220    -4.5763     1.2096 C.3     
  23 N23           -0.9593    -7.4690    -0.0280 N.am    
  24 C24           -0.8393    -8.8114    -0.0360 C.2     
  25 O25            0.2629    -9.3229    -0.0488 O.2     
  26 C26           -2.0515    -9.6636    -0.0291 C.ar    
  27 C27           -1.9208   -11.0505    -0.0375 C.ar    
  28 C28           -3.0637   -11.8344    -0.0305 C.ar    
  29 C29           -4.2980   -11.2036    -0.0154 C.ar    
  30 C30           -4.3532    -9.8191    -0.0077 C.ar    
  31 N31           -3.2525    -9.0992    -0.0096 N.ar    
  32 C32           -5.6927    -9.1288     0.0087 C.3     
  33 C33           -1.2356     2.0902     0.0195 C.3     
  34 H34            4.1709     0.0316    -0.0372 H       
  35 H35            5.0716     2.3066    -0.0339 H       
  36 H36            3.5605     4.2444    -0.0083 H       
  37 H37            1.1387     3.9376     0.0143 H       
  38 H38           -0.2560    -2.6218    -0.0095 H       
  39 H39           -0.7576    -4.9463     0.8732 H       
  40 H40           -0.7741    -4.9372    -0.9067 H       
  41 H41            0.4982    -6.7228     2.1017 H       
  42 H42            1.3764    -7.9792     1.1971 H       
  43 H43            2.9353    -6.2656     2.0815 H       
  44 H44            4.0464    -5.7131    -0.0653 H       
  45 H45            3.4485    -7.3896    -0.0684 H       
  46 H46            2.8957    -6.2436    -2.1967 H       
  47 H47            1.2979    -4.3475    -2.1721 H       
  48 H48            2.7906    -3.9366    -1.2938 H       
  49 H49            1.3533    -7.9664    -1.3012 H       
  50 H50            0.4586    -6.7008    -2.1765 H       
  51 H51            2.8137    -3.9494     1.2045 H       
  52 H52            1.3375    -4.3695     2.1061 H       
  53 H53           -1.8391    -7.0608    -0.0177 H       
  54 H54           -0.9427   -11.5084    -0.0496 H       
  55 H55           -2.9942   -12.9121    -0.0370 H       
  56 H56           -5.2078   -11.7856    -0.0099 H       
  57 H57           -6.0057    -8.9676     1.0403 H       
  58 H58           -5.6129    -8.1686    -0.5010 H       
  59 H59           -6.4283    -9.7508    -0.5013 H       
  60 H60           -1.5330     2.2860     1.0497 H       
  61 H61           -1.0485     3.0352    -0.4906 H       
  62 H62           -2.0333     1.5525    -0.4930 H       
@<TRIPOS>BOND
   1    1    2 1
   2    1    9 1
   3    1   33 1
   4    2    3 2
   5    3    4 1
   6    3   10 1
   7    4    5 ar
   8    4    9 ar
   9    5    6 ar
  10    5   34 1
  11    6    7 ar
  12    6   35 1
  13    7    8 ar
  14    7   36 1
  15    8    9 ar
  16    8   37 1
  17   10   11 2
  18   10   12 am
  19   12   13 1
  20   12   38 1
  21   13   14 1
  22   13   20 1
  23   13   22 1
  24   14   15 1
  25   14   39 1
  26   14   40 1
  27   15   16 1
  28   15   21 1
  29   15   23 1
  30   16   17 1
  31   16   41 1
  32   16   42 1
  33   17   18 1
  34   17   22 1
  35   17   43 1
  36   18   19 1
  37   18   44 1
  38   18   45 1
  39   19   20 1
  40   19   21 1
  41   19   46 1
  42   20   47 1
  43   20   48 1
  44   21   49 1
  45   21   50 1
  46   22   51 1
  47   22   52 1
  48   23   24 am
  49   23   53 1
  50   24   25 2
  51   24   26 1
  52   26   27 ar
  53   26   31 ar
  54   27   28 ar
  55   27   54 1
  56   28   29 ar
  57   28   55 1
  58   29   30 ar
  59   29   56 1
  60   30   31 ar
  61   30   32 1
  62   32   57 1
  63   32   58 1
  64   32   59 1
  65   33   60 1
  66   33   61 1
  67   33   62 1

#	End of record

