#	Name: ASD06590082
#	Creating user name:	WinNT
#	Creation time:	15. 06. 2019 21:06

#	Modifying user name:	WinNT
#	Modification time:	15. 06. 2019 21:06

#	Program:	/corina/corina34_cracker 3.40 0067  02.08.2006

@<TRIPOS>MOLECULE
ASD06590082
 307  307    0    0    0
SMALL
NO_CHARGES


@<TRIPOS>ATOM
   1 C1            -7.9681     9.0147    11.9269 C.2     
   2 O2            -7.8657     9.5858    10.8619 O.2     
   3 N3            -6.7505    10.9082    12.8332 N.am    
   4 C4            -7.3838     9.6312    13.1717 C.3     
   5 C5            -8.4971     9.8692    14.1939 C.3     
   6 C6            -7.9268    10.6077    15.4064 C.3     
   7 O7            -9.5298    10.6573    13.5986 O.3     
   8 C8           -10.6895     7.8106    10.7483 C.2     
   9 O9           -11.0975     8.5632    11.6075 O.2     
  10 N10           -8.6094     7.8315    11.9982 N.am    
  11 C11           -9.2775     7.2879    10.8131 C.3     
  12 C12           -9.3026     5.7604    10.8974 C.3     
  13 C13           -7.8921     5.2317    10.8532 C.2     
  14 O14           -6.9555     6.0022    10.8475 O.2     
  15 N15           -7.6714     3.9025    10.8201 N.am    
  16 C16          -13.7272     6.9894     8.8880 C.2     
  17 O17          -13.2387     5.9797     8.4268 O.2     
  18 N18          -11.4988     7.4419     9.7357 N.am    
  19 C19          -12.8714     7.9501     9.6727 C.3     
  20 C20          -12.8780     9.3172     8.9857 C.3     
  21 C21          -17.2794     6.8412     7.8712 C.2     
  22 O22          -17.5628     7.8906     8.4092 O.2     
  23 N23          -15.0355     7.2524     8.6988 N.am    
  24 C24          -15.8674     6.3185     7.9360 C.3     
  25 C25          -20.5520     5.5014     6.9451 C.2     
  26 O26          -20.1260     4.3691     6.8584 O.2     
  27 N27          -18.2272     6.1427     7.2154 N.am    
  28 C28          -19.5998     6.6508     7.1524 C.3     
  29 C29          -19.7265     7.6345     5.9874 C.3     
  30 C30          -18.8528     8.8610     6.2582 C.3     
  31 C31          -18.9795     9.8447     5.0932 C.3     
  32 N32          -18.1429    11.0191     5.3525 N.pl3   
  33 C33          -18.0953    12.0446     4.4381 C.2     
  34 N34          -17.3510    13.0895     4.6689 N.2     
  35 N35          -18.8328    11.9681     3.2804 N.pl3   
  36 C36          -24.0608     5.1168     5.9944 C.2     
  37 O37          -24.1731     6.2927     5.7195 O.2     
  38 N38          -21.8770     5.7316     6.8559 N.am    
  39 C39          -22.8027     4.6141     6.6543 C.3     
  40 C40          -23.1508     3.9899     8.0071 C.3     
  41 O41          -23.8695     4.9381     8.7985 O.3     
  42 C42          -27.2585     5.2647     5.9345 C.2     
  43 O43          -27.0288     5.2610     7.1254 O.2     
  44 N44          -25.0611     4.2596     5.7097 N.am    
  45 C45          -26.2357     4.7250     4.9682 C.3     
  46 C46          -26.8400     3.5576     4.1852 C.3     
  47 C47          -25.8699     3.1097     3.1226 C.2     
  48 O48          -24.7732     3.6124     3.0551 O.2     
  49 O49          -26.2241     2.1523     2.2510 O.3     
  50 C50          -30.7948     6.1807     5.7992 C.2     
  51 O51          -30.9291     5.7198     4.6854 O.2     
  52 N52          -28.4284     5.7515     5.4754 N.am    
  53 C53          -29.4226     6.2762     6.4148 C.3     
  54 C54          -29.1052     7.7396     6.7287 C.3     
  55 C55          -27.6665     7.8517     7.2373 C.3     
  56 O56          -29.2539     8.5241     5.5436 O.3     
  57 C57          -34.1093     7.5493     6.5094 C.2     
  58 O58          -33.6804     8.2911     7.3677 O.2     
  59 N59          -31.8728     6.6075     6.4863 N.am    
  60 C60          -33.2068     6.5147     5.8879 C.3     
  61 C61          -33.7822     5.1193     6.1385 C.3     
  62 C62          -32.9353     4.0788     5.4030 C.3     
  63 C63          -33.5107     2.6835     5.6536 C.3     
  64 N64          -32.6998     1.6871     4.9493 N.pl3   
  65 C65          -33.0273     0.3542     5.0281 C.2     
  66 N66          -32.3058    -0.5323     4.4015 N.2     
  67 N67          -34.1157    -0.0437     5.7678 N.pl3   
  68 C68          -37.7041     8.2067     6.5994 C.2     
  69 O69          -37.9672     7.1505     6.0646 O.2     
  70 N70          -35.3930     7.6502     6.1114 N.am    
  71 C71          -36.2703     8.6559     6.7156 C.3     
  72 C72          -36.0933     9.9902     5.9881 C.3     
  73 C73          -34.6708    10.5077     6.2107 C.3     
  74 C74          -34.4965    11.8219     5.4942 C.2     
  75 O75          -35.4192    12.2978     4.8671 O.2     
  76 N76          -33.3153    12.4685     5.5501 N.am    
  77 C77          -40.9951     9.7450     7.0068 C.2     
  78 O78          -40.5238    10.8575     7.1122 O.2     
  79 N79          -38.6940     8.9787     7.0898 N.am    
  80 C80          -40.0878     8.5421     6.9769 C.3     
  81 C81          -40.4288     7.6168     8.1467 C.3     
  82 C82          -39.5946     6.3383     8.0457 C.3     
  83 C83          -39.9305     5.4269     9.1979 C.2     
  84 O84          -40.7558     5.7667    10.0192 O.2     
  85 N85          -39.3137     4.2344     9.3159 N.am    
  86 C86          -44.5754    10.3427     7.4393 C.2     
  87 O87          -44.7892     9.1867     7.7374 O.2     
  88 N88          -42.3302     9.5845     6.9166 N.am    
  89 C89          -43.2122    10.7539     6.9457 C.3     
  90 C90          -43.3344    11.3358     5.5359 C.3     
  91 C91          -41.9931    11.8590     5.0905 C.ar    
  92 C92          -41.1152    11.0265     4.4212 C.ar    
  93 C93          -39.8850    11.5036     4.0122 C.ar    
  94 C94          -39.5309    12.8193     4.2732 C.ar    
  95 O95          -38.3213    13.2912     3.8715 O.3     
  96 C96          -40.4137    13.6527     4.9446 C.ar    
  97 C97          -41.6448    13.1723     5.3469 C.ar    
  98 C98          -47.9171    11.8232     7.5074 C.2     
  99 O99          -47.5807    12.7521     6.8039 O.2     
 100 N100         -45.5570    11.2597     7.5495 N.am    
 101 C101         -46.8823    10.8600     8.0293 C.3     
 102 C102         -46.8968    10.8754     9.5592 C.3     
 103 C103         -45.9359     9.8092    10.0891 C.3     
 104 C104         -45.9504     9.8247    11.6189 C.3     
 105 N105         -45.0303     8.8038    12.1263 N.pl3   
 106 C106         -44.8749     8.6308    13.4814 C.2     
 107 N107         -45.5462     9.3752    14.3146 N.2     
 108 N108         -44.0115     7.6728    13.9575 N.pl3   
 109 C109         -51.4169    12.5890     8.2337 C.2     
 110 O110         -51.4271    11.8771     9.2155 O.2     
 111 N111         -49.2163    11.6524     7.8224 N.am    
 112 C112         -50.2223    12.5888     7.3150 C.3     
 113 C113         -50.6575    12.1593     5.9125 C.3     
 114 C114         -49.4725    12.2785     4.9520 C.3     
 115 C115         -49.9077    11.8490     3.5495 C.3     
 116 C116         -48.7228    11.9682     2.5889 C.3     
 117 N117         -49.1406    11.5558     1.2424 N.3     
 118 C118         -54.8588    13.8122     8.0902 C.2     
 119 O119         -54.7694    14.0920     6.9135 O.2     
 120 N120         -52.4741    13.3804     7.9641 N.am    
 121 C121         -53.6355    13.3806     8.8571 C.3     
 122 C122         -53.3895    14.3519    10.0134 C.3     
 123 C123         -57.3185    15.8116     7.9489 C.2     
 124 O124         -56.4674    16.4665     8.5025 O.2     
 125 N125         -56.0523    13.8872     8.7119 N.am    
 126 C126         -57.2415    14.3067     7.9663 C.3     
 127 C127         -58.4925    13.7398     8.6405 C.3     
 128 C128         -58.4475    12.2111     8.5958 C.3     
 129 C129         -59.6221    11.6427     9.3946 C.3     
 130 C130         -58.5434    11.7403     7.1431 C.3     
 131 O131         -58.3327    16.4245     7.3184 O.3     
 132 C132          -5.7597    11.3949    13.6064 C.2     
 133 O133          -5.3923    10.7757    14.5824 O.2     
 134 C134           7.1164    24.2843    17.9947 C.3     
 135 C135           6.4550    22.9507    18.3483 C.3     
 136 C136           5.3700    22.6306    17.3181 C.3     
 137 C137           4.7086    21.2970    17.6716 C.3     
 138 C138           3.6237    20.9769    16.6415 C.3     
 139 C139           2.9623    19.6433    16.9950 C.3     
 140 C140           1.8773    19.3232    15.9648 C.3     
 141 C141           1.2159    17.9896    16.3183 C.3     
 142 C142           0.1309    17.6695    15.2882 C.3     
 143 C143          -0.5305    16.3359    15.6417 C.3     
 144 C144          -1.6155    16.0158    14.6115 C.3     
 145 C145          -2.2769    14.6822    14.9650 C.3     
 146 C146          -3.3618    14.3621    13.9349 C.3     
 147 C147          -4.0232    13.0285    14.2884 C.3     
 148 C148          -5.1082    12.7084    13.2582 C.3     
 149 H149          -7.0443    11.4034    12.0526 H       
 150 H150          -6.6392     8.9575    13.5957 H       
 151 H151          -8.9088     8.9115    14.5123 H       
 152 H152          -7.5152    11.5655    15.0880 H       
 153 H153          -8.7200    10.7773    16.1346 H       
 154 H154          -7.1391    10.0066    15.8605 H       
 155 H155          -9.2345    11.5252    13.2911 H       
 156 H156          -8.6286     7.3398    12.8341 H       
 157 H157          -8.7355     7.5935     9.9182 H       
 158 H158          -9.7757     5.4558    11.8309 H       
 159 H159          -9.8675     5.3593    10.0559 H       
 160 H160          -8.4204     3.2862    10.8246 H       
 161 H161          -6.7635     3.5622    10.7916 H       
 162 H162         -11.1724     6.8400     9.0485 H       
 163 H163         -13.2688     8.0491    10.6828 H       
 164 H164         -13.8993     9.6953     8.9389 H       
 165 H165         -12.2590    10.0120     9.5533 H       
 166 H166         -12.4806     9.2182     7.9756 H       
 167 H167         -15.4262     8.0599     9.0677 H       
 168 H168         -15.8627     5.3445     8.4254 H       
 169 H169         -15.4700     6.2195     6.9259 H       
 170 H170         -18.0005     5.3034     6.7850 H       
 171 H171         -19.8420     7.1596     8.0855 H       
 172 H172         -19.3992     7.1515     5.0667 H       
 173 H173         -20.7664     7.9447     5.8852 H       
 174 H174         -19.1800     9.3441     7.1789 H       
 175 H175         -17.8128     8.5509     6.3604 H       
 176 H176         -18.6522     9.3616     4.1726 H       
 177 H177         -20.0194    10.1548     4.9910 H       
 178 H178         -17.6226    11.0731     6.1694 H       
 179 H179         -17.3174    13.8130     4.0237 H       
 180 H180         -19.3867    11.1905     3.1087 H       
 181 H181         -18.7992    12.6916     2.6352 H       
 182 H182         -22.2176     6.6371     6.9252 H       
 183 H183         -22.3334     3.8638     6.0179 H       
 184 H184         -23.7678     3.1050     7.8510 H       
 185 H185         -22.2335     3.7067     8.5234 H       
 186 H186         -24.1234     4.6096     9.6718 H       
 187 H187         -25.0033     3.3346     5.9958 H       
 188 H188         -25.9394     5.5125     4.2753 H       
 189 H189         -27.0419     2.7299     4.8651 H       
 190 H190         -27.7705     3.8777     3.7162 H       
 191 H191         -25.5682     1.8983     1.5874 H       
 192 H192         -28.6121     5.7545     4.5229 H       
 193 H193         -29.3959     5.6931     7.3353 H       
 194 H194         -29.7905     8.1040     7.4940 H       
 195 H195         -26.9812     7.4873     6.4720 H       
 196 H196         -27.4404     8.8942     7.4610 H       
 197 H197         -27.5531     7.2533     8.1413 H       
 198 H198         -28.6732     8.2554     4.8186 H       
 199 H199         -31.7654     6.9762     7.3771 H       
 200 H200         -33.1366     6.6914     4.8146 H       
 201 H201         -33.7698     4.9079     7.2077 H       
 202 H202         -34.8078     5.0780     5.7718 H       
 203 H203         -32.9477     4.2903     4.3338 H       
 204 H204         -31.9097     4.1201     5.7697 H       
 205 H205         -33.4984     2.4720     6.7228 H       
 206 H206         -34.5364     2.6421     5.2869 H       
 207 H207         -31.9319     1.9679     4.4275 H       
 208 H208         -32.5368    -1.4727     4.4571 H       
 209 H209         -34.6526     0.6159     6.2341 H       
 210 H210         -34.3467    -0.9842     5.8233 H       
 211 H211         -35.7360     7.0568     5.4250 H       
 212 H212         -36.0121     8.7785     7.7674 H       
 213 H213         -36.2654     9.8479     4.9212 H       
 214 H214         -36.8086    10.7143     6.3781 H       
 215 H215         -34.4988    10.6500     7.2776 H       
 216 H216         -33.9555     9.7836     5.8207 H       
 217 H217         -32.5773    12.0879     6.0516 H       
 218 H218         -33.2031    13.3144     5.0889 H       
 219 H219         -38.4835     9.8235     7.5176 H       
 220 H220         -40.2257     8.0063     6.0377 H       
 221 H221         -40.2065     8.1224     9.0865 H       
 222 H222         -41.4883     7.3631     8.1124 H       
 223 H223         -39.8169     5.8327     7.1059 H       
 224 H224         -38.5351     6.5920     8.0800 H       
 225 H225         -38.6536     3.9627     8.6591 H       
 226 H226         -39.5299     3.6478    10.0576 H       
 227 H227         -42.7071     8.6947     6.8323 H       
 228 H228         -42.7954    11.5068     7.6147 H       
 229 H229         -43.6671    10.5575     4.8492 H       
 230 H230         -44.0588    12.1502     5.5406 H       
 231 H231         -41.3914    10.0024     4.2182 H       
 232 H232         -39.1993    10.8528     3.4900 H       
 233 H233         -38.3241    13.6757     2.9842 H       
 234 H234         -40.1402    14.6773     5.1493 H       
 235 H235         -42.3342    13.8219     5.8657 H       
 236 H236         -45.3861    12.1842     7.3110 H       
 237 H237         -47.1095     9.8549     7.6739 H       
 238 H238         -46.5832    11.8566     9.9156 H       
 239 H239         -47.9053    10.6648     9.9151 H       
 240 H240         -46.2495     8.8281     9.7326 H       
 241 H241         -44.9274    10.0198     9.7332 H       
 242 H242         -45.6368    10.8058    11.9754 H       
 243 H243         -46.9589     9.6141    11.9749 H       
 244 H244         -44.5307     8.2498    11.5063 H       
 245 H245         -45.4366     9.2532    15.2706 H       
 246 H246         -43.5119     7.1188    13.3375 H       
 247 H247         -43.9019     7.5508    14.9136 H       
 248 H248         -49.4853    10.9095     8.3851 H       
 249 H249         -49.7966    13.5914     7.2723 H       
 250 H250         -51.0007    11.1251     5.9394 H       
 251 H251         -51.4684    12.8025     5.5708 H       
 252 H252         -49.1293    13.3127     4.9251 H       
 253 H253         -48.6616    11.6353     5.2937 H       
 254 H254         -50.2510    10.8148     3.5764 H       
 255 H255         -50.7186    12.4922     3.2077 H       
 256 H256         -48.3795    13.0024     2.5621 H       
 257 H257         -47.9119    11.3250     2.9307 H       
 258 H258         -49.9338    12.0949     0.9289 H       
 259 H259         -48.3750    11.6257     0.5889 H       
 260 H260         -52.4660    13.9498     7.1789 H       
 261 H261         -53.7899    12.3767     9.2525 H       
 262 H262         -54.2536    14.3520    10.6779 H       
 263 H263         -52.5047    14.0397    10.5682 H       
 264 H264         -53.2350    15.3558     9.6180 H       
 265 H265         -56.1238    13.6634     9.6530 H       
 266 H266         -57.1794    13.9342     6.9438 H       
 267 H267         -58.5282    14.0720     9.6780 H       
 268 H268         -59.3799    14.0927     8.1152 H       
 269 H269         -57.5104    11.8623     9.0296 H       
 270 H270         -59.6409    10.5578     9.2910 H       
 271 H271         -59.5073    11.9054    10.4462 H       
 272 H272         -60.5551    12.0601     9.0157 H       
 273 H273         -57.7066    12.1452     6.5740 H       
 274 H274         -58.5114    10.6513     7.1113 H       
 275 H275         -59.4805    12.0891     6.7092 H       
 276 H276         -58.3394    17.3914     7.3344 H       
 277 H277           6.3659    25.0748    18.0000 H       
 278 H278           7.8894    24.5124    18.7287 H       
 279 H279           7.5651    24.2159    17.0038 H       
 280 H280           7.2055    22.1603    18.3430 H       
 281 H281           6.0063    23.0191    19.3393 H       
 282 H282           4.6195    23.4211    17.3233 H       
 283 H283           5.8188    22.5622    16.3271 H       
 284 H284           5.4592    20.5066    17.6664 H       
 285 H285           4.2599    21.3654    18.6626 H       
 286 H286           2.8731    21.7674    16.6467 H       
 287 H287           4.0724    20.9085    15.6505 H       
 288 H288           3.7128    18.8529    16.9898 H       
 289 H289           2.5135    19.7117    17.9860 H       
 290 H290           1.1268    20.1137    15.9700 H       
 291 H291           2.3260    19.2548    14.9738 H       
 292 H292           1.9664    17.1992    16.3131 H       
 293 H293           0.7671    18.0580    17.3093 H       
 294 H294          -0.6196    18.4600    15.2934 H       
 295 H295           0.5796    17.6011    14.2972 H       
 296 H296           0.2200    15.5455    15.6365 H       
 297 H297          -0.9792    16.4043    16.6327 H       
 298 H298          -2.3660    16.8063    14.6167 H       
 299 H299          -1.1667    15.9474    13.6205 H       
 300 H300          -1.5263    13.8918    14.9598 H       
 301 H301          -2.7256    14.7506    15.9560 H       
 302 H302          -4.1124    15.1526    13.9401 H       
 303 H303          -2.9131    14.2937    12.9439 H       
 304 H304          -3.2727    12.2381    14.2832 H       
 305 H305          -4.4720    13.0969    15.2794 H       
 306 H306          -4.6595    12.6400    12.2672 H       
 307 H307          -5.8587    13.4989    13.2634 H       
@<TRIPOS>BOND
   1    1    2 2
   2    1    4 1
   3    1   10 am
   4    3  132 am
   5    3    4 1
   6    3  149 1
   7    4    5 1
   8    4  150 1
   9    5    6 1
  10    5    7 1
  11    5  151 1
  12    6  152 1
  13    6  153 1
  14    6  154 1
  15    7  155 1
  16    8    9 2
  17    8   11 1
  18    8   18 am
  19   10   11 1
  20   10  156 1
  21   11   12 1
  22   11  157 1
  23   12   13 1
  24   12  158 1
  25   12  159 1
  26   13   14 2
  27   13   15 am
  28   15  160 1
  29   15  161 1
  30   16   17 2
  31   16   19 1
  32   16   23 am
  33   18   19 1
  34   18  162 1
  35   19   20 1
  36   19  163 1
  37   20  164 1
  38   20  165 1
  39   20  166 1
  40   21   22 2
  41   21   24 1
  42   21   27 am
  43   23   24 1
  44   23  167 1
  45   24  168 1
  46   24  169 1
  47   25   26 2
  48   25   28 1
  49   25   38 am
  50   27   28 1
  51   27  170 1
  52   28   29 1
  53   28  171 1
  54   29   30 1
  55   29  172 1
  56   29  173 1
  57   30   31 1
  58   30  174 1
  59   30  175 1
  60   31   32 1
  61   31  176 1
  62   31  177 1
  63   32   33 1
  64   32  178 1
  65   33   34 2
  66   33   35 1
  67   34  179 1
  68   35  180 1
  69   35  181 1
  70   36   37 2
  71   36   39 1
  72   36   44 am
  73   38   39 1
  74   38  182 1
  75   39   40 1
  76   39  183 1
  77   40   41 1
  78   40  184 1
  79   40  185 1
  80   41  186 1
  81   42   43 2
  82   42   45 1
  83   42   52 am
  84   44   45 1
  85   44  187 1
  86   45   46 1
  87   45  188 1
  88   46   47 1
  89   46  189 1
  90   46  190 1
  91   47   48 2
  92   47   49 1
  93   49  191 1
  94   50   51 2
  95   50   53 1
  96   50   59 am
  97   52   53 1
  98   52  192 1
  99   53   54 1
 100   53  193 1
 101   54   55 1
 102   54   56 1
 103   54  194 1
 104   55  195 1
 105   55  196 1
 106   55  197 1
 107   56  198 1
 108   57   58 2
 109   57   60 1
 110   57   70 am
 111   59   60 1
 112   59  199 1
 113   60   61 1
 114   60  200 1
 115   61   62 1
 116   61  201 1
 117   61  202 1
 118   62   63 1
 119   62  203 1
 120   62  204 1
 121   63   64 1
 122   63  205 1
 123   63  206 1
 124   64   65 1
 125   64  207 1
 126   65   66 2
 127   65   67 1
 128   66  208 1
 129   67  209 1
 130   67  210 1
 131   68   69 2
 132   68   71 1
 133   68   79 am
 134   70   71 1
 135   70  211 1
 136   71   72 1
 137   71  212 1
 138   72   73 1
 139   72  213 1
 140   72  214 1
 141   73   74 1
 142   73  215 1
 143   73  216 1
 144   74   75 2
 145   74   76 am
 146   76  217 1
 147   76  218 1
 148   77   78 2
 149   77   80 1
 150   77   88 am
 151   79   80 1
 152   79  219 1
 153   80   81 1
 154   80  220 1
 155   81   82 1
 156   81  221 1
 157   81  222 1
 158   82   83 1
 159   82  223 1
 160   82  224 1
 161   83   84 2
 162   83   85 am
 163   85  225 1
 164   85  226 1
 165   86   87 2
 166   86   89 1
 167   86  100 am
 168   88   89 1
 169   88  227 1
 170   89   90 1
 171   89  228 1
 172   90   91 1
 173   90  229 1
 174   90  230 1
 175   91   92 ar
 176   91   97 ar
 177   92   93 ar
 178   92  231 1
 179   93   94 ar
 180   93  232 1
 181   94   95 1
 182   94   96 ar
 183   95  233 1
 184   96   97 ar
 185   96  234 1
 186   97  235 1
 187   98   99 2
 188   98  101 1
 189   98  111 am
 190  100  101 1
 191  100  236 1
 192  101  102 1
 193  101  237 1
 194  102  103 1
 195  102  238 1
 196  102  239 1
 197  103  104 1
 198  103  240 1
 199  103  241 1
 200  104  105 1
 201  104  242 1
 202  104  243 1
 203  105  106 1
 204  105  244 1
 205  106  107 2
 206  106  108 1
 207  107  245 1
 208  108  246 1
 209  108  247 1
 210  109  110 2
 211  109  112 1
 212  109  120 am
 213  111  112 1
 214  111  248 1
 215  112  113 1
 216  112  249 1
 217  113  114 1
 218  113  250 1
 219  113  251 1
 220  114  115 1
 221  114  252 1
 222  114  253 1
 223  115  116 1
 224  115  254 1
 225  115  255 1
 226  116  117 1
 227  116  256 1
 228  116  257 1
 229  117  258 1
 230  117  259 1
 231  118  119 2
 232  118  121 1
 233  118  125 am
 234  120  121 1
 235  120  260 1
 236  121  122 1
 237  121  261 1
 238  122  262 1
 239  122  263 1
 240  122  264 1
 241  123  124 2
 242  123  126 1
 243  123  131 1
 244  125  126 1
 245  125  265 1
 246  126  127 1
 247  126  266 1
 248  127  128 1
 249  127  267 1
 250  127  268 1
 251  128  129 1
 252  128  130 1
 253  128  269 1
 254  129  270 1
 255  129  271 1
 256  129  272 1
 257  130  273 1
 258  130  274 1
 259  130  275 1
 260  131  276 1
 261  132  133 2
 262  132  148 1
 263  134  135 1
 264  134  277 1
 265  134  278 1
 266  134  279 1
 267  135  136 1
 268  135  280 1
 269  135  281 1
 270  136  137 1
 271  136  282 1
 272  136  283 1
 273  137  138 1
 274  137  284 1
 275  137  285 1
 276  138  139 1
 277  138  286 1
 278  138  287 1
 279  139  140 1
 280  139  288 1
 281  139  289 1
 282  140  141 1
 283  140  290 1
 284  140  291 1
 285  141  142 1
 286  141  292 1
 287  141  293 1
 288  142  143 1
 289  142  294 1
 290  142  295 1
 291  143  144 1
 292  143  296 1
 293  143  297 1
 294  144  145 1
 295  144  298 1
 296  144  299 1
 297  145  146 1
 298  145  300 1
 299  145  301 1
 300  146  147 1
 301  146  302 1
 302  146  303 1
 303  147  148 1
 304  147  304 1
 305  147  305 1
 306  148  306 1
 307  148  307 1

#	End of record

