#	Name: ASD01410298
#	Creating user name:	WinNT
#	Creation time:	15. 06. 2019 19:17

#	Modifying user name:	WinNT
#	Modification time:	15. 06. 2019 19:17

#	Program:	/corina/corina34_cracker 3.40 0067  02.08.2006

@<TRIPOS>MOLECULE
ASD01410298
  61   65    0    0    0
SMALL
NO_CHARGES


@<TRIPOS>ATOM
   1 O1            -0.9305     1.0296    -1.1813 O.3     
   2 C2            -0.4957    -0.2046    -0.8912 C.2     
   3 C3             0.8357    -0.1378    -0.6165 C.2     
   4 C4             1.2016     1.2768    -0.7637 C.2     
   5 C5             0.0727     1.9177    -1.1079 C.2     
   6 N6             2.8679    -1.6212    -0.9224 N.pl3   
   7 C7             1.7282    -1.2570    -0.2466 C.2     
   8 C8             1.5503    -2.0855     0.8145 C.2     
   9 C9             2.6158    -3.0168     0.8206 C.ar    
  10 C10            3.4327    -2.7095    -0.2869 C.ar    
  11 C11            2.9512    -4.0875     1.6625 C.ar    
  12 C12            4.0669    -4.8258     1.4138 C.ar    
  13 C13            4.8889    -4.5239     0.3172 C.ar    
  14 C14            4.5658    -3.4668    -0.5335 C.ar    
  15 C15           -0.3571    -3.3420     1.7798 C.3     
  16 C16           -1.5052    -3.2797     2.7892 C.3     
  17 C17           -0.9390    -3.0519     4.1922 C.3     
  18 C18           -0.1624    -1.7340     4.2211 C.3     
  19 C19            0.9857    -1.7964     3.2117 C.3     
  20 C20            0.4195    -2.0241     1.8087 C.3     
  21 C21            1.6250    -0.7382    -3.8791 C.ar    
  22 C22            0.9516    -1.2061    -4.9919 C.ar    
  23 C23            1.3126    -2.4128    -5.5616 C.ar    
  24 C24            2.3474    -3.1513    -5.0187 C.ar    
  25 C25            3.0205    -2.6836    -3.9056 C.ar    
  26 C26            2.6594    -1.4770    -3.3359 C.ar    
  27 C27            1.2355     0.5802    -3.2617 C.3     
  28 C28            3.3939    -0.9667    -2.1229 C.3     
  29 C29            4.1479    -3.4892    -3.3131 C.3     
  30 C30            6.0943    -5.3310     0.0596 C.2     
  31 O31            6.8078    -5.0717    -0.8894 O.2     
  32 O32            6.4057    -6.3569     0.8764 O.3     
  33 H33           -1.0994    -1.1000    -0.8774 H       
  34 H34            2.1796     1.7131    -0.6237 H       
  35 H35           -0.0138     2.9776    -1.2961 H       
  36 H36            2.3239    -4.3258     2.5087 H       
  37 H37            4.3216    -5.6490     2.0648 H       
  38 H38            5.1994    -3.2362    -1.3772 H       
  39 H39            0.3110    -4.1631     2.0397 H       
  40 H40           -0.7605    -3.5042     0.7803 H       
  41 H41           -2.1733    -2.4585     2.5293 H       
  42 H42           -2.0585    -4.2186     2.7687 H       
  43 H43           -1.7569    -3.0075     4.9113 H       
  44 H44           -0.2709    -3.8731     4.4521 H       
  45 H45           -0.8305    -0.9129     3.9612 H       
  46 H46            0.2410    -1.5718     5.2206 H       
  47 H47            1.5390    -0.8574     3.2322 H       
  48 H48            1.6538    -2.6175     3.4716 H       
  49 H49           -0.2486    -1.2029     1.5488 H       
  50 H50            0.1431    -0.6291    -5.4161 H       
  51 H51            0.7860    -2.7787    -6.4306 H       
  52 H52            2.6290    -4.0944    -5.4634 H       
  53 H53            0.3828     0.4332    -2.5988 H       
  54 H54            2.0753     0.9764    -2.6910 H       
  55 H55            0.9665     1.2846    -4.0489 H       
  56 H56            3.2537     0.1111    -2.0401 H       
  57 H57            4.4565    -1.1884    -2.2217 H       
  58 H58            5.1016    -3.0681    -3.6312 H       
  59 H59            4.0827    -3.4603    -2.2255 H       
  60 H60            4.0749    -4.5219    -3.6542 H       
  61 H61            7.2061    -6.8574     0.6670 H       
@<TRIPOS>BOND
   1    1    2 1
   2    1    5 1
   3    2    3 2
   4    2   33 1
   5    3    4 1
   6    3    7 1
   7    4    5 2
   8    4   34 1
   9    5   35 1
  10    6    7 1
  11    6   28 1
  12    6   10 1
  13    7    8 2
  14    8    9 1
  15    8   20 1
  16    9   10 ar
  17    9   11 ar
  18   10   14 ar
  19   11   12 ar
  20   11   36 1
  21   12   13 ar
  22   12   37 1
  23   13   14 ar
  24   13   30 1
  25   14   38 1
  26   15   16 1
  27   15   20 1
  28   15   39 1
  29   15   40 1
  30   16   17 1
  31   16   41 1
  32   16   42 1
  33   17   18 1
  34   17   43 1
  35   17   44 1
  36   18   19 1
  37   18   45 1
  38   18   46 1
  39   19   20 1
  40   19   47 1
  41   19   48 1
  42   20   49 1
  43   21   22 ar
  44   21   26 ar
  45   21   27 1
  46   22   23 ar
  47   22   50 1
  48   23   24 ar
  49   23   51 1
  50   24   25 ar
  51   24   52 1
  52   25   26 ar
  53   25   29 1
  54   26   28 1
  55   27   53 1
  56   27   54 1
  57   27   55 1
  58   28   56 1
  59   28   57 1
  60   29   58 1
  61   29   59 1
  62   29   60 1
  63   30   31 2
  64   30   32 1
  65   32   61 1

#	End of record

