#	Name: ASD05490071
#	Creating user name:	WinNT
#	Creation time:	15. 06. 2019 21:01

#	Modifying user name:	WinNT
#	Modification time:	15. 06. 2019 21:01

#	Program:	/corina/corina34_cracker 3.40 0067  02.08.2006

@<TRIPOS>MOLECULE
ASD05490071
  70   74    0    0    0
SMALL
NO_CHARGES


@<TRIPOS>ATOM
   1 N1            -0.0178     1.4608     0.0101 N.am    
   2 O2             4.5863     2.8161    -0.0262 O.3     
   3 N3             2.8511     4.3368    -0.0011 N.ar    
   4 C4             1.5540     4.6376     0.0125 C.ar    
   5 C5             3.2565     3.0770    -0.0125 C.ar    
   6 N6             2.4054     2.0644    -0.0098 N.ar    
   7 C7             1.0946     2.2826     0.0039 C.ar    
   8 C8             0.6266     3.5971     0.0154 C.ar    
   9 N9             1.1342     5.9598     0.0241 N.pl3   
  10 C10           -1.1223     2.2312     0.0189 C.2     
  11 N11           -0.7663     3.5310     0.0284 N.am    
  12 C12            5.4681     3.9405    -0.0273 C.3     
  13 C13            6.9178     3.4518    -0.0435 C.3     
  14 O14            7.1762     2.7676    -1.2712 O.3     
  15 C15            8.5098     2.2679    -1.3886 C.3     
  16 O16           -2.2665     1.8171     0.0260 O.2     
  17 C17            0.0021    -0.0041     0.0020 C.3     
  18 C18            0.0225    -0.5140     1.4200 C.ar    
  19 C19           -1.1674    -0.7635     2.0797 C.ar    
  20 C20           -1.1546    -1.2305     3.3784 C.ar    
  21 C21            0.0599    -1.4511     4.0247 C.ar    
  22 C22            1.2555    -1.1986     3.3552 C.ar    
  23 C23            1.2310    -0.7362     2.0550 C.ar    
  24 C24            0.0800    -1.9528     5.4211 C.ar    
  25 C25            1.2946    -2.1734     6.0675 C.ar    
  26 C26           -1.1155    -2.1995     6.0926 C.ar    
  27 C27           -1.0910    -2.6661     7.3915 C.ar    
  28 C28            0.1173    -2.8887     8.0263 C.ar    
  29 C29            1.3074    -2.6400     7.3662 C.ar    
  30 N30            3.0557    -4.2666     7.8168 N.3     
  31 C31            4.4356    -4.4743     8.2776 C.3     
  32 C32            2.9201    -4.6148     6.3955 C.3     
  33 C33            3.3073    -6.0817     6.1933 C.3     
  34 N34            4.6872    -6.2894     6.6541 N.3     
  35 C35            4.8228    -5.9411     8.0754 C.3     
  36 C36            2.6203    -2.8856     8.0642 C.3     
  37 C37            5.1226    -7.6704     6.4067 C.3     
  38 H38            1.7881     6.6762     0.0223 H       
  39 H39            0.1868     6.1678     0.0340 H       
  40 H40           -1.3727     4.2880     0.0359 H       
  41 H41            5.2799     4.5490    -0.9119 H       
  42 H42            5.2961     4.5380     0.8679 H       
  43 H43            7.5900     4.3052     0.0452 H       
  44 H44            7.0814     2.7720     0.7927 H       
  45 H45            8.6252     1.7622    -2.3473 H       
  46 H46            9.2150     3.0968    -1.3278 H       
  47 H47            8.7064     1.5636    -0.5803 H       
  48 H48           -0.8878    -0.3767    -0.5053 H       
  49 H49            0.8920    -0.3525    -0.5222 H       
  50 H50           -2.1082    -0.5921     1.5778 H       
  51 H51           -2.0843    -1.4243     3.8928 H       
  52 H52            2.1997    -1.3679     3.8515 H       
  53 H53            2.1571    -0.5405     1.5350 H       
  54 H54            2.2243    -1.9799     5.5530 H       
  55 H55           -2.0597    -2.0256     5.5980 H       
  56 H56           -2.0172    -2.8573     7.9131 H       
  57 H57            0.1319    -3.2535     9.0427 H       
  58 H58            5.1100    -3.8378     7.7047 H       
  59 H59            4.5076    -4.2217     9.3355 H       
  60 H60            1.8872    -4.4647     6.0813 H       
  61 H61            3.5773    -3.9800     5.8012 H       
  62 H62            2.6329    -6.7181     6.7662 H       
  63 H63            3.2352    -6.3343     5.1354 H       
  64 H64            5.8556    -6.0912     8.3897 H       
  65 H65            4.1656    -6.5759     8.6697 H       
  66 H66            3.3705    -2.1939     7.6810 H       
  67 H67            2.4965    -2.7301     9.1360 H       
  68 H68            5.0757    -7.8802     5.3381 H       
  69 H69            6.1470    -7.7967     6.7571 H       
  70 H70            4.4682    -8.3590     6.9412 H       
@<TRIPOS>BOND
   1    1   17 1
   2    1    7 1
   3    1   10 am
   4    2   12 1
   5    2    5 1
   6    3    4 ar
   7    3    5 ar
   8    4    9 1
   9    4    8 ar
  10    5    6 ar
  11    6    7 ar
  12    7    8 ar
  13    8   11 1
  14    9   38 1
  15    9   39 1
  16   10   11 am
  17   10   16 2
  18   11   40 1
  19   12   13 1
  20   12   41 1
  21   12   42 1
  22   13   14 1
  23   13   43 1
  24   13   44 1
  25   14   15 1
  26   15   45 1
  27   15   46 1
  28   15   47 1
  29   17   18 1
  30   17   48 1
  31   17   49 1
  32   18   19 ar
  33   18   23 ar
  34   19   20 ar
  35   19   50 1
  36   20   21 ar
  37   20   51 1
  38   21   22 ar
  39   21   24 1
  40   22   23 ar
  41   22   52 1
  42   23   53 1
  43   24   25 ar
  44   24   26 ar
  45   25   29 ar
  46   25   54 1
  47   26   27 ar
  48   26   55 1
  49   27   28 ar
  50   27   56 1
  51   28   29 ar
  52   28   57 1
  53   29   36 1
  54   30   31 1
  55   30   32 1
  56   30   36 1
  57   31   35 1
  58   31   58 1
  59   31   59 1
  60   32   33 1
  61   32   60 1
  62   32   61 1
  63   33   34 1
  64   33   62 1
  65   33   63 1
  66   34   35 1
  67   34   37 1
  68   35   64 1
  69   35   65 1
  70   36   66 1
  71   36   67 1
  72   37   68 1
  73   37   69 1
  74   37   70 1

#	End of record

