#	Name: ASD04590523
#	Creating user name:	WinNT
#	Creation time:	15. 06. 2019 20:51

#	Modifying user name:	WinNT
#	Modification time:	15. 06. 2019 20:51

#	Program:	/corina/corina34_cracker 3.40 0067  02.08.2006

@<TRIPOS>MOLECULE
ASD04590523
  35   38    0    0    0
SMALL
NO_CHARGES


@<TRIPOS>ATOM
   1 C1            -0.0159     1.3189     0.0093 C.ar    
   2 N2             0.0021    -0.0041     0.0020 N.ar    
   3 C3            -2.3486    -0.1003     0.0239 C.ar    
   4 C4            -2.3999     1.3087     0.0436 C.ar    
   5 C5            -1.2057     2.0185     0.0301 C.ar    
   6 N6            -3.6277    -0.5453     0.0433 N.2     
   7 C7            -4.4485     0.4770     0.0729 C.2     
   8 N8            -3.7333     1.6464     0.0743 N.pl3   
   9 C9            -5.9227     0.3825     0.1007 C.2     
  10 C10           -6.6793    -0.8121     0.1003 C.2     
  11 C11           -7.9908    -0.4707     0.1305 C.2     
  12 N12           -8.0677     0.8859     0.1493 N.pl3   
  13 N13           -6.7640     1.3973     0.1360 N.2     
  14 N14           -6.1643    -2.1183     0.0731 N.am    
  15 C15           -7.0027    -3.1735     0.0761 C.2     
  16 O16           -8.2053    -2.9945     0.1025 O.2     
  17 C17           -1.1004    -0.7242     0.0087 C.ar    
  18 C18           -6.4616    -4.5456     0.0475 C.ar    
  19 C19           -6.2278    -5.1843    -1.1751 C.ar    
  20 Cl20           1.4850     2.1911    -0.0004 Cl      
  21 C21           -5.7202    -6.4698    -1.1927 C.ar    
  22 C22           -5.4441    -7.1248    -0.0063 C.ar    
  23 C23           -5.6727    -6.5011     1.2068 C.ar    
  24 C24           -6.1740    -5.2135     1.2428 C.ar    
  25 F25           -6.3963    -4.6059     2.4288 F       
  26 F26           -6.4976    -4.5465    -2.3351 F       
  27 H27           -1.2082     3.0984     0.0362 H       
  28 H28           -4.0991     2.5446     0.0939 H       
  29 H29           -8.8261    -1.1553     0.1378 H       
  30 H30           -8.8841     1.4093     0.1716 H       
  31 H31           -5.2051    -2.2610     0.0521 H       
  32 H32           -1.0383    -1.8024     0.0019 H       
  33 H33           -5.5390    -6.9643    -2.1356 H       
  34 H34           -5.0479    -8.1293    -0.0272 H       
  35 H35           -5.4550    -7.0201     2.1286 H       
@<TRIPOS>BOND
   1    1    2 ar
   2    1   20 1
   3    1    5 ar
   4    2   17 ar
   5    3    4 ar
   6    3    6 1
   7    3   17 ar
   8    4    5 ar
   9    4    8 1
  10    5   27 1
  11    6    7 2
  12    7    8 1
  13    7    9 1
  14    8   28 1
  15    9   10 1
  16    9   13 2
  17   10   11 2
  18   10   14 1
  19   11   12 1
  20   11   29 1
  21   12   13 1
  22   12   30 1
  23   14   15 am
  24   14   31 1
  25   15   16 2
  26   15   18 1
  27   17   32 1
  28   18   19 ar
  29   18   24 ar
  30   19   21 ar
  31   19   26 1
  32   21   22 ar
  33   21   33 1
  34   22   23 ar
  35   22   34 1
  36   23   24 ar
  37   23   35 1
  38   24   25 1

#	End of record

