#	Name: ASD00960223
#	Creating user name:	WinNT
#	Creation time:	15. 06. 2019 18:53

#	Modifying user name:	WinNT
#	Modification time:	15. 06. 2019 18:53

#	Program:	/corina/corina34_cracker 3.40 0067  02.08.2006

@<TRIPOS>MOLECULE
ASD00960223
  37   40    0    0    0
SMALL
NO_CHARGES


@<TRIPOS>ATOM
   1 C1             0.5918     1.7428    -1.3127 C.2     
   2 C2             0.8069     0.4665    -1.8109 C.2     
   3 N3             1.6618     2.0948    -0.5350 N.pl3   
   4 C4             2.5593     1.0621    -0.5278 C.2     
   5 C5             2.0417     0.0288    -1.3234 C.2     
   6 N6             1.9664     3.2503     0.1991 N.2     
   7 C7             3.0866     3.3233     0.8698 C.2     
   8 N8             3.9659     2.3274     0.8846 N.2     
   9 C9             3.7504     1.2058     0.2180 C.2     
  10 N10            4.6808     0.1852     0.2502 N.pl3   
  11 C11            2.6804    -1.2739    -1.5946 C.2     
  12 N12            2.1244    -2.3288    -2.2545 N.pl3   
  13 N13            3.1167    -3.3249    -2.2553 N.2     
  14 N14            4.1375    -2.8382    -1.6373 N.2     
  15 N15            3.8999    -1.6374    -1.2499 N.2     
  16 C16           -0.5801     2.5763    -1.5792 C.2     
  17 O17           -1.4727     2.1602    -2.2934 O.2     
  18 O18           -0.6712     3.8067    -1.0329 O.3     
  19 C19           -1.8434     4.5658    -1.3357 C.3     
  20 C20           -1.7692     5.9022    -0.6431 C.ar    
  21 C21           -1.1866     6.9805    -1.2823 C.ar    
  22 C22           -1.1186     8.2064    -0.6470 C.ar    
  23 C23           -1.6336     8.3539     0.6273 C.ar    
  24 C24           -2.2170     7.2758     1.2662 C.ar    
  25 C25           -2.2889     6.0511     0.6292 C.ar    
  26 H26            0.1421    -0.0878    -2.4568 H       
  27 H27            3.3040     4.2214     1.4290 H       
  28 H28            5.6280     0.3911     0.2140 H       
  29 H29            4.3869    -0.7373     0.3089 H       
  30 H30            1.2359    -2.3813    -2.6401 H       
  31 H31           -1.9094     4.7180    -2.4130 H       
  32 H32           -2.7251     4.0260    -0.9903 H       
  33 H33           -0.7843     6.8653    -2.2779 H       
  34 H34           -0.6628     9.0487    -1.1461 H       
  35 H35           -1.5798     9.3115     1.1240 H       
  36 H36           -2.6190     7.3910     2.2619 H       
  37 H37           -2.7481     5.2097     1.1268 H       
@<TRIPOS>BOND
   1    1    2 2
   2    1    3 1
   3    1   16 1
   4    2    5 1
   5    2   26 1
   6    3    4 1
   7    3    6 1
   8    4    5 2
   9    4    9 1
  10    5   11 1
  11    6    7 2
  12    7    8 1
  13    7   27 1
  14    8    9 2
  15    9   10 1
  16   10   28 1
  17   10   29 1
  18   11   12 1
  19   11   15 2
  20   12   13 1
  21   12   30 1
  22   13   14 2
  23   14   15 1
  24   16   17 2
  25   16   18 1
  26   18   19 1
  27   19   20 1
  28   19   31 1
  29   19   32 1
  30   20   21 ar
  31   20   25 ar
  32   21   22 ar
  33   21   33 1
  34   22   23 ar
  35   22   34 1
  36   23   24 ar
  37   23   35 1
  38   24   25 ar
  39   24   36 1
  40   25   37 1

#	End of record

