#	Name: ASD08510002
#	Creating user name:	WinNT
#	Creation time:	15. 06. 2019 21:19

#	Modifying user name:	WinNT
#	Modification time:	15. 06. 2019 21:19

#	Program:	/corina/corina34_cracker 3.40 0067  02.08.2006

@<TRIPOS>MOLECULE
ASD08510002
  52   56    0    0    0
SMALL
NO_CHARGES


@<TRIPOS>ATOM
   1 C1            -0.0167     1.3808     0.0096 C.ar    
   2 C2             0.0021    -0.0041     0.0020 C.ar    
   3 C3             2.4055     0.0355    -0.0204 C.ar    
   4 C4             2.3791     1.4180    -0.0131 C.ar    
   5 C5             1.1709     2.0891     0.0021 C.ar    
   6 O6            -1.0072    -0.9231     0.0068 O.3     
   7 C7            -0.4034    -2.1594    -0.4179 C.3     
   8 O8             0.9731    -2.0229    -0.0181 O.3     
   9 C9             1.2199    -0.6804    -0.0133 C.ar    
  10 C10            3.6705     2.1948    -0.0204 C.3     
  11 N11            4.0769     2.4535    -1.4039 N.am    
  12 C12            5.2102     3.1378    -1.6566 C.2     
  13 C13            5.6283     3.4040    -3.0798 C.3     
  14 O14            5.8937     3.5392    -0.7387 O.2     
  15 N15            6.8837     4.1590    -3.0869 N.am    
  16 C16            6.8555     5.5116    -3.0741 C.2     
  17 C17            8.0681     3.4984    -3.1007 C.2     
  18 N18            9.2175     4.1089    -3.1072 N.2     
  19 C19            8.1392     6.2173    -3.0815 C.2     
  20 N20            8.4935     7.5100    -3.0734 N.2     
  21 C21            9.3083     5.4460    -3.1006 C.2     
  22 N22           10.3457     6.3334    -3.1043 N.pl3   
  23 N23            9.7769     7.6160    -3.0864 N.2     
  24 C24           11.7125     6.0237    -3.1171 C.ar    
  25 C25           12.6030     6.8338    -3.8093 C.ar    
  26 C26           13.9491     6.5260    -3.8202 C.ar    
  27 C27           14.4107     5.4122    -3.1426 C.ar    
  28 C28           13.5266     4.6035    -2.4529 C.ar    
  29 C29           12.1797     4.9096    -2.4332 C.ar    
  30 C30           14.9161     7.4044    -4.5716 C.3     
  31 C31           15.8804     5.0792    -3.1565 C.3     
  32 O32            5.8004     6.1208    -3.0574 O.2     
  33 H33           -0.9594     1.9078     0.0170 H       
  34 H34            3.3510    -0.4862    -0.0326 H       
  35 H35            1.1544     3.1689     0.0077 H       
  36 H36           -0.8672    -3.0059     0.0885 H       
  37 H37           -0.4788    -2.2707    -1.4996 H       
  38 H38            3.5277     3.1420     0.4996 H       
  39 H39            4.4450     1.6167     0.4837 H       
  40 H40            3.5303     2.1325    -2.1381 H       
  41 H41            5.7711     2.4567    -3.5998 H       
  42 H42            4.8538     3.9820    -3.5839 H       
  43 H43            8.0570     2.4184    -3.1061 H       
  44 H44           12.2430     7.7035    -4.3390 H       
  45 H45           13.8900     3.7342    -1.9250 H       
  46 H46           11.4901     4.2802    -1.8903 H       
  47 H47           15.2865     8.1867    -3.9091 H       
  48 H48           15.7528     6.8028    -4.9268 H       
  49 H49           14.4084     7.8589    -5.4223 H       
  50 H50           16.3719     5.5691    -2.3159 H       
  51 H51           16.0092     4.0000    -3.0739 H       
  52 H52           16.3231     5.4276    -4.0896 H       
@<TRIPOS>BOND
   1    1    2 ar
   2    1    5 ar
   3    1   33 1
   4    2    9 ar
   5    2    6 1
   6    3    4 ar
   7    3    9 ar
   8    3   34 1
   9    4    5 ar
  10    4   10 1
  11    5   35 1
  12    6    7 1
  13    7    8 1
  14    7   36 1
  15    7   37 1
  16    8    9 1
  17   10   11 1
  18   10   38 1
  19   10   39 1
  20   11   12 am
  21   11   40 1
  22   12   13 1
  23   12   14 2
  24   13   15 1
  25   13   41 1
  26   13   42 1
  27   15   17 1
  28   15   16 am
  29   16   19 1
  30   16   32 2
  31   17   18 2
  32   17   43 1
  33   18   21 1
  34   19   21 2
  35   19   20 1
  36   20   23 2
  37   21   22 1
  38   22   23 1
  39   22   24 1
  40   24   25 ar
  41   24   29 ar
  42   25   26 ar
  43   25   44 1
  44   26   27 ar
  45   26   30 1
  46   27   28 ar
  47   27   31 1
  48   28   29 ar
  49   28   45 1
  50   29   46 1
  51   30   47 1
  52   30   48 1
  53   30   49 1
  54   31   50 1
  55   31   51 1
  56   31   52 1

#	End of record

