#	Name: ASD01913457
#	Creating user name:	WinNT
#	Creation time:	15. 06. 2019 20:01

#	Modifying user name:	WinNT
#	Modification time:	15. 06. 2019 20:01

#	Program:	/corina/corina34_cracker 3.40 0067  02.08.2006

@<TRIPOS>MOLECULE
ASD01913457
  36   38    0    0    0
SMALL
NO_CHARGES


@<TRIPOS>ATOM
   1 C1             0.8973     0.0666    -1.0443 C.ar    
   2 C2             0.0312    -0.0131     0.0414 C.ar    
   3 C3             0.3743     0.6246     1.2252 C.ar    
   4 N4             1.5035     1.2972     1.3240 N.ar    
   5 C5             2.3462     1.3921     0.3139 C.ar    
   6 C6             2.0737     0.7840    -0.8970 C.ar    
   7 C7            -1.0665    -2.0567    -0.1523 C.ar    
   8 C8            -2.2364    -2.8033    -0.1691 C.ar    
   9 C9            -2.1581    -4.1831    -0.2735 C.ar    
  10 C10           -0.9068    -4.7708    -0.3581 C.ar    
  11 C11            0.2245    -3.9643    -0.3357 C.ar    
  12 N12            0.1143    -2.6485    -0.2349 N.ar    
  13 N13            1.4876    -4.5459    -0.4196 N.am    
  14 C14            2.5843    -3.7666    -0.5007 C.2     
  15 O15           -1.1344    -0.7051    -0.0560 O.3     
  16 C16            3.9119    -4.3793    -0.7180 C.ar    
  17 C17            4.0316    -5.7656    -0.8395 C.ar    
  18 C18            5.2711    -6.3398    -1.0421 C.ar    
  19 C19            6.3997    -5.5493    -1.1258 C.ar    
  20 C20            6.2945    -4.1609    -1.0065 C.ar    
  21 C21            5.0460    -3.5746    -0.8077 C.ar    
  22 O22            2.4816    -2.5601    -0.3951 O.2     
  23 C23            7.4662    -3.3422    -1.0936 C.1     
  24 N24            8.3957    -2.6927    -1.1627 N.1     
  25 H25            0.6608    -0.4225    -1.9777 H       
  26 H26           -0.2910     0.5695     2.0742 H       
  27 H27            3.2614     1.9525     0.4346 H       
  28 H28            2.7697     0.8667    -1.7187 H       
  29 H29           -3.1971    -2.3145    -0.1010 H       
  30 H30           -3.0534    -4.7869    -0.2884 H       
  31 H31           -0.8114    -5.8434    -0.4401 H       
  32 H32            1.5778    -5.5117    -0.4198 H       
  33 H33            3.1528    -6.3900    -0.7746 H       
  34 H34            5.3579    -7.4123    -1.1350 H       
  35 H35            7.3662    -6.0049    -1.2836 H       
  36 H36            4.9589    -2.5021    -0.7151 H       
@<TRIPOS>BOND
   1    1    2 ar
   2    1    6 ar
   3    1   25 1
   4    2    3 ar
   5    2   15 1
   6    3    4 ar
   7    3   26 1
   8    4    5 ar
   9    5    6 ar
  10    5   27 1
  11    6   28 1
  12    7    8 ar
  13    7   12 ar
  14    7   15 1
  15    8    9 ar
  16    8   29 1
  17    9   10 ar
  18    9   30 1
  19   10   11 ar
  20   10   31 1
  21   11   12 ar
  22   11   13 1
  23   13   14 am
  24   13   32 1
  25   14   16 1
  26   14   22 2
  27   16   17 ar
  28   16   21 ar
  29   17   18 ar
  30   17   33 1
  31   18   19 ar
  32   18   34 1
  33   19   20 ar
  34   19   35 1
  35   20   21 ar
  36   20   23 1
  37   21   36 1
  38   23   24 3

#	End of record

