#	Name: ASD03092559
#	Creating user name:	WinNT
#	Creation time:	15. 06. 2019 20:32

#	Modifying user name:	WinNT
#	Modification time:	15. 06. 2019 20:32

#	Program:	/corina/corina34_cracker 3.40 0067  02.08.2006

@<TRIPOS>MOLECULE
ASD03092559
  38   40    0    0    0
SMALL
NO_CHARGES


@<TRIPOS>ATOM
   1 O1             0.0413     1.1942     0.1676 O.3     
   2 N2             0.0720    -0.0123     0.2370 N.2     
   3 C3             1.2854    -0.4615     0.3763 C.2     
   4 C4             2.1339     0.6678     0.3940 C.2     
   5 C5             1.2759     1.7244     0.2547 C.2     
   6 C6             1.6315     3.1552     0.2086 C.2     
   7 O7             2.7952     3.4956     0.2992 O.2     
   8 N8             0.6666     4.0852     0.0660 N.am    
   9 C9             1.7035    -1.9043     0.4961 C.3     
  10 C10            1.0198     5.5063     0.0202 C.3     
  11 C11            1.3426     5.9053    -1.4212 C.3     
  12 N12           -3.1414     8.7718     1.9718 N.pl3   
  13 C13           -2.4144     9.8391     2.4256 C.2     
  14 C14           -1.1071     9.6276     2.2074 C.2     
  15 C15           -0.9873     8.3182     1.5612 C.ar    
  16 C16            0.0915     7.5593     1.0972 C.ar    
  17 C17           -0.1394     6.3285     0.5215 C.ar    
  18 C18           -1.4342     5.8423     0.4004 C.ar    
  19 C19           -2.5066     6.5788     0.8520 C.ar    
  20 C20           -2.2976     7.8240     1.4372 C.ar    
  21 C21           -2.9956    11.0693     3.0736 C.3     
  22 F22            1.3527     8.0296     1.2126 F       
  23 H23            3.2090     0.6915     0.4944 H       
  24 H24           -0.2618     3.8137    -0.0063 H       
  25 H25            1.9008    -2.3090    -0.4966 H       
  26 H26            2.6070    -1.9717     1.1021 H       
  27 H27            0.9051    -2.4759     0.9693 H       
  28 H28            1.8911     5.6846     0.6503 H       
  29 H29            0.4713     5.7270    -2.0513 H       
  30 H30            1.6054     6.9626    -1.4553 H       
  31 H31            2.1810     5.3106    -1.7837 H       
  32 H32           -4.1069     8.6930     2.0229 H       
  33 H33           -0.2972    10.2959     2.4599 H       
  34 H34           -1.6021     4.8765    -0.0529 H       
  35 H35           -3.5093     6.1902     0.7520 H       
  36 H36           -3.0542    10.9189     4.1516 H       
  37 H37           -2.3584    11.9276     2.8606 H       
  38 H38           -3.9946    11.2511     2.6773 H       
@<TRIPOS>BOND
   1    1    2 1
   2    1    5 1
   3    2    3 2
   4    3    4 1
   5    3    9 1
   6    4    5 2
   7    4   23 1
   8    5    6 1
   9    6    7 2
  10    6    8 am
  11    8   10 1
  12    8   24 1
  13    9   25 1
  14    9   26 1
  15    9   27 1
  16   10   11 1
  17   10   17 1
  18   10   28 1
  19   11   29 1
  20   11   30 1
  21   11   31 1
  22   12   13 1
  23   12   20 1
  24   12   32 1
  25   13   14 2
  26   13   21 1
  27   14   15 1
  28   14   33 1
  29   15   16 ar
  30   15   20 ar
  31   16   17 ar
  32   16   22 1
  33   17   18 ar
  34   18   19 ar
  35   18   34 1
  36   19   20 ar
  37   19   35 1
  38   21   36 1
  39   21   37 1
  40   21   38 1

#	End of record

