#	Name: ASD01470012
#	Creating user name:	WinNT
#	Creation time:	15. 06. 2019 19:21

#	Modifying user name:	WinNT
#	Modification time:	15. 06. 2019 19:21

#	Program:	/corina/corina34_cracker 3.40 0067  02.08.2006

@<TRIPOS>MOLECULE
ASD01470012
 146  148    0    0    0
SMALL
NO_CHARGES


@<TRIPOS>ATOM
   1 C1             2.5687     3.1877     1.3845 C.ar    
   2 C2             2.5527     1.8096     1.4905 C.ar    
   3 C3             3.7071     1.0851     1.2594 C.ar    
   4 C4             4.8775     1.7389     0.9219 C.ar    
   5 C5             4.8933     3.1170     0.8151 C.ar    
   6 C6             3.7392     3.8415     1.0475 C.ar    
   7 C7             1.2769     1.0969     1.8584 C.3     
   8 C8             0.5001     0.7523     0.5861 C.3     
   9 N9             0.0764     1.9880    -0.0771 N.am    
  10 C10           -0.1597     1.9938    -1.4041 C.2     
  11 C11           -0.5955     3.2649    -2.0863 C.3     
  12 O12           -0.0214     0.9760    -2.0491 O.2     
  13 N13           -0.7855     3.0110    -3.5166 N.am    
  14 C14           -1.9126     3.7463    -1.4744 C.3     
  15 C15           -2.9724     2.6931    -1.6709 C.2     
  16 N16           -4.2441     2.9390    -1.2983 N.am    
  17 O17           -2.6810     1.6242    -2.1643 O.2     
  18 C18           -0.7716     4.0368    -4.3907 C.2     
  19 O19           -0.6928     5.1773    -3.9860 O.2     
  20 C20           -0.8541     3.7665    -5.8710 C.3     
  21 C21           -0.8193     5.0921    -6.6342 C.3     
  22 C22           -0.9030     4.8176    -8.1370 C.3     
  23 C23           -0.8683     6.1432    -8.9002 C.3     
  24 C24           -1.0641    10.3479   -17.9645 C.3     
  25 C25           -1.1478    10.0735   -19.4673 C.3     
  26 C26           -1.1955    11.1288   -21.7108 C.2     
  27 O27           -1.2743     9.9882   -22.1155 O.2     
  28 C28           -1.8323    13.0983   -24.7239 C.2     
  29 N29           -2.2944    12.9897   -25.9853 N.am    
  30 O30           -1.8757    14.1670   -24.1521 O.2     
  31 C31           -2.7315    14.1851   -26.7107 C.3     
  32 C32           -1.5221    14.8538   -27.3674 C.3     
  33 C33           -3.7265    13.7927   -27.7724 C.2     
  34 C34           -0.5702    15.3635   -26.2835 C.3     
  35 C35            0.6962    15.9200   -26.9375 C.3     
  36 C36           -1.2575    16.4695   -25.4801 C.3     
  37 O37           -4.0397    12.6291   -27.9095 O.2     
  38 N38           -4.2683    14.7348   -28.5694 N.am    
  39 C39           -1.1130    11.3991   -20.2305 C.3     
  40 C40           -6.2482    14.8808   -32.6901 C.ar    
  41 C41           -7.1581    14.5204   -33.6649 C.ar    
  42 C42           -8.5135    14.4882   -33.3693 C.ar    
  43 C43           -8.9511    14.8183   -32.0946 C.ar    
  44 C44           -8.0370    15.1781   -31.1235 C.ar    
  45 C45           -6.6870    15.2094   -31.4207 C.ar    
  46 C46           -5.2355    14.3534   -29.6014 C.3     
  47 C47           -5.6920    15.6018   -30.3591 C.3     
  48 N48           -1.1817    12.1546   -22.5849 N.am    
  49 C49           -1.2618    11.8918   -24.0240 C.3     
  50 C50            0.1383    11.6012   -24.5681 C.3     
  51 O51            0.0766    11.4552   -25.9883 O.3     
  52 C52            0.6695    10.3087   -23.9451 C.3     
  53 O53           -9.4107    14.1344   -34.3266 O.3     
  54 C54           -8.7814    11.8715   -33.9486 C.ar    
  55 C55           -8.8788    10.5352   -34.2841 C.ar    
  56 C56           -9.7017    10.1405   -35.3285 C.ar    
  57 C57          -10.4270    11.0876   -36.0362 C.ar    
  58 C58          -10.3298    12.4240   -35.7010 C.ar    
  59 C59           -9.5067    12.8189   -34.6564 C.ar    
  60 O60           -9.7971     8.8249   -35.6590 O.3     
  61 C61           -0.7130    -0.0668     0.9445 C.2     
  62 O62           -1.8181     0.3398     0.6737 O.2     
  63 O63           -0.5658    -1.2482     1.5645 O.3     
  64 C64           -0.9520     5.8688   -10.4031 C.3     
  65 C65           -0.9172     7.1944   -11.1663 C.3     
  66 C66           -1.0009     6.9200   -12.6692 C.3     
  67 C67           -0.9662     8.2456   -13.4324 C.3     
  68 C68           -1.0499     7.9712   -14.9352 C.3     
  69 C69           -1.0151     9.2968   -15.6984 C.3     
  70 C70           -1.0988     9.0223   -17.2013 C.3     
  71 H71            1.6657     3.7534     1.5606 H       
  72 H72            3.6948     0.0084     1.3429 H       
  73 H73            5.7796     1.1729     0.7421 H       
  74 H74            5.8077     3.6277     0.5518 H       
  75 H75            3.7514     4.9182     0.9637 H       
  76 H76            1.5153     0.1803     2.3980 H       
  77 H77            0.6691     1.7435     2.4913 H       
  78 H78            1.1393     0.1799    -0.0861 H       
  79 H79           -0.0342     2.8019     0.4387 H       
  80 H80            0.1689     4.0301    -1.9515 H       
  81 H81           -0.9212     2.1047    -3.8345 H       
  82 H82           -1.7734     3.9273    -0.4086 H       
  83 H83           -2.2236     4.6701    -1.9623 H       
  84 H84           -4.4772     3.7939    -0.9037 H       
  85 H85           -4.9262     2.2611    -1.4248 H       
  86 H86           -0.0085     3.1497    -6.1753 H       
  87 H87           -1.7841     3.2433    -6.0935 H       
  88 H88           -1.6649     5.7088    -6.3298 H       
  89 H89            0.1107     5.6152    -6.4116 H       
  90 H90           -0.0574     4.2009    -8.4414 H       
  91 H91           -1.8330     4.2945    -8.3596 H       
  92 H92           -1.7139     6.7600    -8.5959 H       
  93 H93            0.0617     6.6664    -8.6777 H       
  94 H94           -0.1341    10.8710   -17.7419 H       
  95 H95           -1.9097    10.9647   -17.6601 H       
  96 H96           -0.3022     9.4567   -19.7717 H       
  97 H97           -2.0778     9.5504   -19.6899 H       
  98 H98           -2.3376    12.1201   -26.4128 H       
  99 H99           -3.1985    14.8820   -26.0148 H       
 100 H100          -1.0031    14.1297   -27.9955 H       
 101 H101          -1.8576    15.6910   -27.9794 H       
 102 H102          -0.3045    14.5424   -25.6178 H       
 103 H103           0.4305    16.7412   -27.6032 H       
 104 H104           1.3743    16.2832   -26.1653 H       
 105 H105           1.1858    15.1321   -27.5098 H       
 106 H106          -2.1596    16.0730   -25.0142 H       
 107 H107          -0.5793    16.8326   -24.7079 H       
 108 H108          -1.5231    17.2906   -26.1459 H       
 109 H109          -4.0177    15.6655   -28.4597 H       
 110 H110          -1.9586    12.0159   -19.9262 H       
 111 H111          -0.1830    11.9222   -20.0080 H       
 112 H112          -5.1928    14.9017   -32.9184 H       
 113 H113          -6.8149    14.2642   -34.6564 H       
 114 H114         -10.0055    14.7944   -31.8620 H       
 115 H115          -8.3771    15.4352   -30.1312 H       
 116 H116          -4.7685    13.6565   -30.2974 H       
 117 H117          -6.0971    13.8770   -29.1336 H       
 118 H118          -4.8304    16.0782   -30.8269 H       
 119 H119          -6.1590    16.2987   -29.6631 H       
 120 H120          -1.1186    13.0668   -22.2613 H       
 121 H121          -1.9063    11.0307   -24.2007 H       
 122 H122           0.8045    12.4264   -24.3163 H       
 123 H123          -0.3192    12.2104   -26.4445 H       
 124 H124           0.0033     9.4835   -24.1969 H       
 125 H125           1.6670    10.1016   -24.3328 H       
 126 H126           0.7166    10.4201   -22.8618 H       
 127 H127          -8.1441    12.1784   -33.1325 H       
 128 H128          -8.3139     9.7977   -33.7333 H       
 129 H129         -11.0677    10.7802   -36.8495 H       
 130 H130         -10.8939    13.1615   -36.2525 H       
 131 H131         -10.4973     8.3512   -35.1894 H       
 132 H132          -1.3731    -1.7376     1.7742 H       
 133 H133          -0.1064     5.2520   -10.7075 H       
 134 H134          -1.8820     5.3457   -10.6257 H       
 135 H135          -1.7628     7.8112   -10.8619 H       
 136 H136           0.0128     7.7175   -10.9437 H       
 137 H137          -0.1553     6.3032   -12.9735 H       
 138 H138          -1.9309     6.3969   -12.8917 H       
 139 H139          -1.8118     8.8624   -13.1280 H       
 140 H140          -0.0362     8.7687   -13.2098 H       
 141 H141          -0.2043     7.3544   -15.2396 H       
 142 H142          -1.9799     7.4480   -15.1578 H       
 143 H143          -1.8607     9.9135   -15.3940 H       
 144 H144          -0.0851     9.8199   -15.4758 H       
 145 H145          -2.0288     8.4992   -17.4239 H       
 146 H146          -0.2532     8.4056   -17.5057 H       
@<TRIPOS>BOND
   1    1    2 ar
   2    1    6 ar
   3    1   71 1
   4    2    3 ar
   5    2    7 1
   6    3    4 ar
   7    3   72 1
   8    4    5 ar
   9    4   73 1
  10    5    6 ar
  11    5   74 1
  12    6   75 1
  13    7    8 1
  14    7   76 1
  15    7   77 1
  16    8    9 1
  17    8   61 1
  18    8   78 1
  19    9   10 am
  20    9   79 1
  21   10   11 1
  22   10   12 2
  23   11   13 1
  24   11   14 1
  25   11   80 1
  26   13   18 am
  27   13   81 1
  28   14   15 1
  29   14   82 1
  30   14   83 1
  31   15   16 am
  32   15   17 2
  33   16   84 1
  34   16   85 1
  35   18   19 2
  36   18   20 1
  37   20   21 1
  38   20   86 1
  39   20   87 1
  40   21   22 1
  41   21   88 1
  42   21   89 1
  43   22   23 1
  44   22   90 1
  45   22   91 1
  46   23   64 1
  47   23   92 1
  48   23   93 1
  49   24   25 1
  50   24   70 1
  51   24   94 1
  52   24   95 1
  53   25   39 1
  54   25   96 1
  55   25   97 1
  56   26   27 2
  57   26   48 am
  58   26   39 1
  59   28   29 am
  60   28   30 2
  61   28   49 1
  62   29   31 1
  63   29   98 1
  64   31   32 1
  65   31   33 1
  66   31   99 1
  67   32   34 1
  68   32  100 1
  69   32  101 1
  70   33   37 2
  71   33   38 am
  72   34   35 1
  73   34   36 1
  74   34  102 1
  75   35  103 1
  76   35  104 1
  77   35  105 1
  78   36  106 1
  79   36  107 1
  80   36  108 1
  81   38   46 1
  82   38  109 1
  83   39  110 1
  84   39  111 1
  85   40   41 ar
  86   40   45 ar
  87   40  112 1
  88   41   42 ar
  89   41  113 1
  90   42   43 ar
  91   42   53 1
  92   43   44 ar
  93   43  114 1
  94   44   45 ar
  95   44  115 1
  96   45   47 1
  97   46   47 1
  98   46  116 1
  99   46  117 1
 100   47  118 1
 101   47  119 1
 102   48   49 1
 103   48  120 1
 104   49   50 1
 105   49  121 1
 106   50   51 1
 107   50   52 1
 108   50  122 1
 109   51  123 1
 110   52  124 1
 111   52  125 1
 112   52  126 1
 113   53   59 1
 114   54   55 ar
 115   54   59 ar
 116   54  127 1
 117   55   56 ar
 118   55  128 1
 119   56   57 ar
 120   56   60 1
 121   57   58 ar
 122   57  129 1
 123   58   59 ar
 124   58  130 1
 125   60  131 1
 126   61   62 2
 127   61   63 1
 128   63  132 1
 129   64   65 1
 130   64  133 1
 131   64  134 1
 132   65   66 1
 133   65  135 1
 134   65  136 1
 135   66   67 1
 136   66  137 1
 137   66  138 1
 138   67   68 1
 139   67  139 1
 140   67  140 1
 141   68   69 1
 142   68  141 1
 143   68  142 1
 144   69   70 1
 145   69  143 1
 146   69  144 1
 147   70  145 1
 148   70  146 1

#	End of record

