#	Name: ASD01910729
#	Creating user name:	WinNT
#	Creation time:	15. 06. 2019 19:56

#	Modifying user name:	WinNT
#	Modification time:	15. 06. 2019 19:56

#	Program:	/corina/corina34_cracker 3.40 0067  02.08.2006

@<TRIPOS>MOLECULE
ASD01910729
  56   59    0    0    0
SMALL
NO_CHARGES


@<TRIPOS>ATOM
   1 C1            12.4096    -2.3114     4.1837 C.ar    
   2 N2            12.9560    -2.4725     2.9903 N.ar    
   3 C3            12.2826    -2.1432     1.9044 C.ar    
   4 C4            10.9944    -1.6253     2.0168 C.ar    
   5 N5            10.4501    -1.4653     3.2162 N.ar    
   6 C6            11.1317    -1.7978     4.2993 C.ar    
   7 N7            10.2814    -1.2765     0.8757 N.3     
   8 C8             8.9532    -0.7545     1.2239 C.3     
   9 C9             8.2727    -0.2154    -0.0389 C.3     
  10 N10            8.2768    -1.2740    -1.0600 N.am    
  11 C11            9.5514    -1.9414    -1.3654 C.3     
  12 C12           10.1815    -2.4125    -0.0503 C.3     
  13 C13            7.1426    -1.6236    -1.6985 C.2     
  14 C14            7.1893    -2.5995    -2.8054 C.ar    
  15 O15            6.0809    -1.1353    -1.3631 O.2     
  16 C16            6.1811    -3.5599    -2.9339 C.ar    
  17 C17            6.2196    -4.4735    -3.9652 C.ar    
  18 C18            7.2589    -4.4479    -4.8835 C.ar    
  19 C19            8.2780    -3.4881    -4.7645 C.ar    
  20 C20            8.2358    -2.5601    -3.7260 C.ar    
  21 C21            9.3524    -3.4595    -5.7107 C.1     
  22 C22           10.2333    -3.4360    -6.4865 C.1     
  23 C23           11.3077    -3.4074    -7.4327 C.2     
  24 O24            7.2917    -5.3498    -5.8959 O.3     
  25 C25            6.2235    -6.2971    -5.9557 C.3     
  26 C26           12.3723    -2.3630    -7.2630 C.3     
  27 C27           13.6155    -2.7420    -8.0704 C.3     
  28 C28           13.1804    -3.0925    -9.4987 C.3     
  29 C29           12.3712    -4.3904    -9.4554 C.3     
  30 C30           11.3080    -4.3031    -8.3996 C.2     
  31 H31           12.9617    -2.5861     5.0703 H       
  32 H32           12.7295    -2.2746     0.9301 H       
  33 H33           10.6892    -1.6679     5.2758 H       
  34 H34            8.3480    -1.5548     1.6497 H       
  35 H35            9.0579     0.0497     1.9521 H       
  36 H36            7.2455     0.0675     0.1910 H       
  37 H37            8.8204     0.6516    -0.4082 H       
  38 H38            9.3696    -2.7996    -2.0124 H       
  39 H39           10.2220    -1.2403    -1.8622 H       
  40 H40           11.1771    -2.8107    -0.2462 H       
  41 H41            9.5592    -3.1897     0.3932 H       
  42 H42            5.3693    -3.5861    -2.2221 H       
  43 H43            5.4376    -5.2126    -4.0585 H       
  44 H44            9.0157    -1.8193    -3.6289 H       
  45 H45            6.3712    -6.9578    -6.8100 H       
  46 H46            6.2088    -6.8864    -5.0388 H       
  47 H47            5.2758    -5.7697    -6.0638 H       
  48 H48           11.9943    -1.4018    -7.6115 H       
  49 H49           12.6365    -2.2843    -6.2084 H       
  50 H50           14.3072    -1.9000    -8.0946 H       
  51 H51           14.1001    -3.6047    -7.6132 H       
  52 H52           12.5631    -2.2893    -9.9009 H       
  53 H53           14.0609    -3.2307   -10.1261 H       
  54 H54           11.9064    -4.5589   -10.4268 H       
  55 H55           13.0359    -5.2232    -9.2258 H       
  56 H56           10.4924    -5.0099    -8.4389 H       
@<TRIPOS>BOND
   1    1    2 ar
   2    1    6 ar
   3    1   31 1
   4    2    3 ar
   5    3    4 ar
   6    3   32 1
   7    4    5 ar
   8    4    7 1
   9    5    6 ar
  10    6   33 1
  11    7    8 1
  12    7   12 1
  13    8    9 1
  14    8   34 1
  15    8   35 1
  16    9   10 1
  17    9   36 1
  18    9   37 1
  19   10   11 1
  20   10   13 am
  21   11   12 1
  22   11   38 1
  23   11   39 1
  24   12   40 1
  25   12   41 1
  26   13   14 1
  27   13   15 2
  28   14   16 ar
  29   14   20 ar
  30   16   17 ar
  31   16   42 1
  32   17   18 ar
  33   17   43 1
  34   18   19 ar
  35   18   24 1
  36   19   20 ar
  37   19   21 1
  38   20   44 1
  39   21   22 3
  40   22   23 1
  41   23   26 1
  42   23   30 2
  43   24   25 1
  44   25   45 1
  45   25   46 1
  46   25   47 1
  47   26   27 1
  48   26   48 1
  49   26   49 1
  50   27   28 1
  51   27   50 1
  52   27   51 1
  53   28   29 1
  54   28   52 1
  55   28   53 1
  56   29   30 1
  57   29   54 1
  58   29   55 1
  59   30   56 1

#	End of record

