#	Name: ASD01142014
#	Creating user name:	WinNT
#	Creation time:	15. 06. 2019 19:01

#	Modifying user name:	WinNT
#	Modification time:	15. 06. 2019 19:01

#	Program:	/corina/corina34_cracker 3.40 0067  02.08.2006

@<TRIPOS>MOLECULE
ASD01142014
  37   40    0    0    0
SMALL
NO_CHARGES


@<TRIPOS>ATOM
   1 C1             0.0940     0.8972     1.0482 C.ar    
   2 C2             0.3014    -0.4783     1.0191 C.ar    
   3 C3             1.5341    -1.0023     0.6494 C.ar    
   4 C4             2.5824    -0.1228     0.3009 C.ar    
   5 C5             2.3485     1.2729     0.3377 C.ar    
   6 C6             1.0934     1.7644     0.7152 C.ar    
   7 C7             1.7462    -2.4666     0.6216 C.ar    
   8 N8             0.7457    -3.2729     0.9539 N.ar    
   9 C9             0.9024    -4.5851     0.9389 C.ar    
  10 C10            2.1297    -5.1162     0.5705 C.ar    
  11 C11            3.1541    -4.2455     0.2292 C.ar    
  12 N12            2.9309    -2.9432     0.2599 N.ar    
  13 N13            3.7872    -0.5800    -0.0613 N.ar    
  14 N14            4.7477     0.2097    -0.3798 N.ar    
  15 C15            4.6307     1.5387    -0.3777 C.ar    
  16 C16            3.4144     2.1366    -0.0159 C.ar    
  17 N17            3.2629     3.5057    -0.0046 N.pl3   
  18 C18            5.7804     2.3794    -0.7557 C.2     
  19 O19            5.6468     3.5843    -0.8527 O.2     
  20 N20            6.9799     1.8130    -0.9941 N.am    
  21 C21            8.3174     2.2879    -1.3794 C.3     
  22 C22            8.5629     0.9128    -2.0159 C.3     
  23 C23            7.5290     0.4488    -0.9768 C.3     
  24 F24           -0.7063    -1.3133     1.3543 F       
  25 H25           -0.8731     1.2839     1.3342 H       
  26 H26            0.9161     2.8294     0.7425 H       
  27 H27            0.0847    -5.2362     1.2106 H       
  28 H28            2.2845    -6.1848     0.5503 H       
  29 H29            4.1215    -4.6274    -0.0621 H       
  30 H30            4.0429     4.0795     0.0531 H       
  31 H31            2.3763     3.8960    -0.0542 H       
  32 H32            8.2968     3.1034    -2.1024 H       
  33 H33            8.9665     2.4945    -0.5285 H       
  34 H34            8.2286     0.8330    -3.0503 H       
  35 H35            9.5656     0.5175    -1.8530 H       
  36 H36            7.9706     0.1670    -0.0209 H       
  37 H37            6.8359    -0.3008    -1.3588 H       
@<TRIPOS>BOND
   1    1    2 ar
   2    1    6 ar
   3    1   25 1
   4    2    3 ar
   5    2   24 1
   6    3    4 ar
   7    3    7 1
   8    4    5 ar
   9    4   13 ar
  10    5    6 ar
  11    5   16 ar
  12    6   26 1
  13    7    8 ar
  14    7   12 ar
  15    8    9 ar
  16    9   10 ar
  17    9   27 1
  18   10   11 ar
  19   10   28 1
  20   11   12 ar
  21   11   29 1
  22   13   14 ar
  23   14   15 ar
  24   15   16 ar
  25   15   18 1
  26   16   17 1
  27   17   30 1
  28   17   31 1
  29   18   19 2
  30   18   20 am
  31   20   21 1
  32   20   23 1
  33   21   22 1
  34   21   32 1
  35   21   33 1
  36   22   23 1
  37   22   34 1
  38   22   35 1
  39   23   36 1
  40   23   37 1

#	End of record

