#	Name: ASD03092850
#	Creating user name:	WinNT
#	Creation time:	15. 06. 2019 20:33

#	Modifying user name:	WinNT
#	Modification time:	15. 06. 2019 20:33

#	Program:	/corina/corina34_cracker 3.40 0067  02.08.2006

@<TRIPOS>MOLECULE
ASD03092850
  64   67    0    0    0
SMALL
NO_CHARGES


@<TRIPOS>ATOM
   1 C1            -0.0351     1.5145     0.0096 C.3     
   2 C2            -0.0184    -0.0154    -0.0023 C.3     
   3 C3             0.6896    -0.5004    -1.2410 C.ar    
   4 C4            -0.0352    -0.7233    -2.4050 C.ar    
   5 C5             0.5835    -1.1630    -3.5411 C.ar    
   6 C6             1.9571    -1.3922    -3.5380 C.ar    
   7 N7             2.8493    -1.8226    -4.4851 N.pl3   
   8 N8             4.1288    -1.8710    -3.9225 N.2     
   9 C9             4.0834    -1.4936    -2.6738 C.2     
  10 O10            5.1385    -1.4177    -1.8201 O.3     
  11 C11            6.4189    -1.7860    -2.3368 C.3     
  12 C12            7.1052    -0.5520    -2.9261 C.3     
  13 C13            7.2791    -2.3577    -1.2081 C.3     
  14 C14            2.6931    -1.1666    -2.3586 C.ar    
  15 C15            2.0382    -0.7113    -1.2104 C.ar    
  16 C16            2.5157    -2.1758    -5.8672 C.3     
  17 C17            3.2902    -1.2690    -6.8263 C.3     
  18 C18            2.9128    -1.6180    -8.2694 C.3     
  19 N19            3.1377    -3.0542    -8.4829 N.am    
  20 C20            2.5121    -4.0119    -7.5609 C.3     
  21 C21            2.8939    -3.6361    -6.1257 C.3     
  22 C22            3.9029    -3.4849    -9.5054 C.2     
  23 O23            4.3372    -2.6901   -10.3165 O.2     
  24 N24            4.1866    -4.7967    -9.6287 N.am    
  25 C25            4.9229    -5.2799   -10.7994 C.3     
  26 C26            6.4280    -5.1389   -10.5522 C.3     
  27 C27            7.1900    -5.7183   -11.7470 C.3     
  28 O28            6.8132    -7.0841   -11.9335 O.3     
  29 C29            5.4251    -7.2732   -12.2151 C.3     
  30 C30            4.5922    -6.7563   -11.0392 C.3     
  31 H31            0.9885     1.8891     0.0059 H       
  32 H32           -0.5586     1.8790    -0.8743 H       
  33 H33           -0.5472     1.8653     0.9056 H       
  34 H34            0.5051    -0.3798     0.8816 H       
  35 H35           -1.0420    -0.3900     0.0014 H       
  36 H36           -1.1007    -0.5473    -2.4119 H       
  37 H37            0.0085    -1.3328    -4.4394 H       
  38 H38            6.2938    -2.5386    -3.1152 H       
  39 H39            7.2303     0.2006    -2.1477 H       
  40 H40            8.0819    -0.8329    -3.3202 H       
  41 H41            6.4924    -0.1447    -3.7302 H       
  42 H42            6.7902    -3.2368    -0.7883 H       
  43 H43            8.2558    -2.6387    -1.6022 H       
  44 H44            7.4042    -1.6051    -0.4297 H       
  45 H45            2.5954    -0.5312    -0.3030 H       
  46 H46            1.4456    -2.0440    -6.0276 H       
  47 H47            3.0380    -0.2277    -6.6260 H       
  48 H48            4.3605    -1.4185    -6.6839 H       
  49 H49            1.8620    -1.3834    -8.4393 H       
  50 H50            3.5333    -1.0447    -8.9582 H       
  51 H51            1.4285    -3.9725    -7.6729 H       
  52 H52            2.8681    -5.0181    -7.7822 H       
  53 H53            3.9679    -3.7632    -5.9899 H       
  54 H54            2.3596    -4.2795    -5.4267 H       
  55 H55            3.9033    -5.4208    -8.9423 H       
  56 H56            4.6395    -4.6959   -11.6750 H       
  57 H57            6.6807    -4.0850   -10.4354 H       
  58 H58            6.7011    -5.6823    -9.6477 H       
  59 H59            6.9472    -5.1485   -12.6439 H       
  60 H60            8.2618    -5.6595   -11.5577 H       
  61 H61            5.1592    -6.7238   -13.1182 H       
  62 H62            5.2255    -8.3345   -12.3631 H       
  63 H63            4.8282    -7.3324   -10.1445 H       
  64 H64            3.5320    -6.8591   -11.2706 H       
@<TRIPOS>BOND
   1    1    2 1
   2    1   31 1
   3    1   32 1
   4    1   33 1
   5    2    3 1
   6    2   34 1
   7    2   35 1
   8    3   15 ar
   9    3    4 ar
  10    4    5 ar
  11    4   36 1
  12    5    6 ar
  13    5   37 1
  14    6   14 ar
  15    6    7 1
  16    7    8 1
  17    7   16 1
  18    8    9 2
  19    9   10 1
  20    9   14 1
  21   10   11 1
  22   11   12 1
  23   11   13 1
  24   11   38 1
  25   12   39 1
  26   12   40 1
  27   12   41 1
  28   13   42 1
  29   13   43 1
  30   13   44 1
  31   14   15 ar
  32   15   45 1
  33   16   21 1
  34   16   17 1
  35   16   46 1
  36   17   18 1
  37   17   47 1
  38   17   48 1
  39   18   19 1
  40   18   49 1
  41   18   50 1
  42   19   20 1
  43   19   22 am
  44   20   21 1
  45   20   51 1
  46   20   52 1
  47   21   53 1
  48   21   54 1
  49   22   23 2
  50   22   24 am
  51   24   25 1
  52   24   55 1
  53   25   30 1
  54   25   26 1
  55   25   56 1
  56   26   27 1
  57   26   57 1
  58   26   58 1
  59   27   28 1
  60   27   59 1
  61   27   60 1
  62   28   29 1
  63   29   30 1
  64   29   61 1
  65   29   62 1
  66   30   63 1
  67   30   64 1

#	End of record

