#	Name: ASD01200111
#	Creating user name:	WinNT
#	Creation time:	15. 06. 2019 19:08

#	Modifying user name:	WinNT
#	Modification time:	15. 06. 2019 19:08

#	Program:	/corina/corina34_cracker 3.40 0067  02.08.2006

@<TRIPOS>MOLECULE
ASD01200111
  55   59    0    0    0
SMALL
NO_CHARGES


@<TRIPOS>ATOM
   1 C1             0.6474     1.0534     2.5514 C.2     
   2 N2             0.6047    -0.2334     2.3099 N.2     
   3 C3             1.7097    -0.6046     1.6202 C.ar    
   4 C4             2.4870     0.5519     1.4271 C.ar    
   5 N5             1.7929     1.5861     2.0255 N.pl3   
   6 C6             2.1607    -1.8293     1.1169 C.ar    
   7 C7             3.3610    -1.8900     0.4378 C.ar    
   8 C8             4.1244    -0.7404     0.2510 C.ar    
   9 C9             3.6914     0.4724     0.7418 C.ar    
  10 C10           -0.3906     1.8176     3.2786 C.ar    
  11 C11           -1.5206     1.1603     3.7640 C.ar    
  12 C12           -2.4825     1.8888     4.4426 C.ar    
  13 C13           -2.2832     3.2512     4.6137 C.ar    
  14 C14           -1.1382     3.8389     4.1056 C.ar    
  15 N15           -0.2360     3.1225     3.4682 N.ar    
  16 C16            5.4326    -0.8230    -0.4925 C.3     
  17 N17            5.1387     0.4071    -2.7074 N.pl3   
  18 N18            4.8910     0.0604    -3.9252 N.2     
  19 N19            4.7742    -1.2206    -3.9766 N.2     
  20 N20            4.9444    -1.7134    -2.7983 N.2     
  21 C21            5.1757    -0.7210    -1.9740 C.2     
  22 C22            5.3469     1.7715    -2.2162 C.3     
  23 O23            3.8009    -3.0797    -0.0515 O.3     
  24 C24            2.9791    -4.1565     0.0556 C.ar    
  25 C25            2.0601    -4.4319    -0.9469 C.ar    
  26 C26            1.2262    -5.5275    -0.8358 C.ar    
  27 C27            1.3063    -6.3492     0.2734 C.ar    
  28 C28            2.2212    -6.0771     1.2738 C.ar    
  29 C29            3.0614    -4.9860     1.1649 C.ar    
  30 S30            0.2403    -7.7453     0.4125 S.o2    
  31 O31            0.1310    -7.9646     1.8122 O.2     
  32 O32           -0.8966    -7.3970    -0.3655 O.2     
  33 C33            1.1598    -9.0970    -0.3737 C.3     
  34 C34            0.3287   -10.3803    -0.3160 C.3     
  35 H35            2.0662     2.5160     2.0649 H       
  36 H36            1.5726    -2.7238     1.2594 H       
  37 H37            4.2884     1.3600     0.5933 H       
  38 H38           -1.6437     0.0981     3.6125 H       
  39 H39           -3.3684     1.4074     4.8298 H       
  40 H40           -3.0152     3.8474     5.1382 H       
  41 H41           -0.9805     4.8992     4.2373 H       
  42 H42            6.0810    -0.0049    -0.1790 H       
  43 H43            5.9162    -1.7748    -0.2724 H       
  44 H44            4.3907     2.1988    -1.9143 H       
  45 H45            6.0218     1.7506    -1.3606 H       
  46 H46            5.7830     2.3802    -3.0082 H       
  47 H47            1.9966    -3.7900    -1.8131 H       
  48 H48            0.5107    -5.7423    -1.6158 H       
  49 H49            2.2816    -6.7203     2.1393 H       
  50 H50            3.7787    -4.7762     1.9446 H       
  51 H51            1.3624    -8.8418    -1.4138 H       
  52 H52            2.1017    -9.2502     0.1530 H       
  53 H53            0.8811   -11.1925    -0.7884 H       
  54 H54            0.1260   -10.6355     0.7242 H       
  55 H55           -0.6133   -10.2271    -0.8426 H       
@<TRIPOS>BOND
   1    1    2 2
   2    1    5 1
   3    1   10 1
   4    2    3 1
   5    3    4 ar
   6    3    6 ar
   7    4    5 1
   8    4    9 ar
   9    5   35 1
  10    6    7 ar
  11    6   36 1
  12    7    8 ar
  13    7   23 1
  14    8    9 ar
  15    8   16 1
  16    9   37 1
  17   10   11 ar
  18   10   15 ar
  19   11   12 ar
  20   11   38 1
  21   12   13 ar
  22   12   39 1
  23   13   14 ar
  24   13   40 1
  25   14   15 ar
  26   14   41 1
  27   16   21 1
  28   16   42 1
  29   16   43 1
  30   17   18 1
  31   17   21 1
  32   17   22 1
  33   18   19 2
  34   19   20 1
  35   20   21 2
  36   22   44 1
  37   22   45 1
  38   22   46 1
  39   23   24 1
  40   24   25 ar
  41   24   29 ar
  42   25   26 ar
  43   25   47 1
  44   26   27 ar
  45   26   48 1
  46   27   28 ar
  47   27   30 1
  48   28   29 ar
  49   28   49 1
  50   29   50 1
  51   30   31 2
  52   30   32 2
  53   30   33 1
  54   33   34 1
  55   33   51 1
  56   33   52 1
  57   34   53 1
  58   34   54 1
  59   34   55 1

#	End of record

