#	Name: ASD04882271
#	Creating user name:	WinNT
#	Creation time:	15. 06. 2019 20:54

#	Modifying user name:	WinNT
#	Modification time:	15. 06. 2019 20:54

#	Program:	/corina/corina34_cracker 3.40 0067  02.08.2006

@<TRIPOS>MOLECULE
ASD04882271
  72   76    0    0    0
SMALL
NO_CHARGES


@<TRIPOS>ATOM
   1 N1            -0.1365     1.5554    -0.0361 N.am    
   2 C2            -0.0766     0.1558    -0.0457 C.ar    
   3 C3            -1.2530    -0.5952     0.0293 C.ar    
   4 C4            -1.1950    -1.9841     0.0194 C.ar    
   5 C5             0.0211    -2.6251    -0.0639 C.ar    
   6 C6             1.2013    -1.8802    -0.1392 C.ar    
   7 C7             1.1455    -0.4836    -0.1352 C.ar    
   8 N8            -2.4847     0.0487     0.1145 N.3     
   9 C9            -2.6117     0.7766     1.3849 C.3     
  10 C10           -3.5902    -0.9044    -0.0558 C.3     
  11 C11           -4.9204    -0.1478    -0.0352 C.3     
  12 N12           -5.0474     0.5800     1.2351 N.3     
  13 C13           -3.9419     1.5332     1.4055 C.3     
  14 C14            2.5039    -2.5670    -0.2285 C.2     
  15 O15            3.5302    -1.9182    -0.2939 O.2     
  16 C16           -6.2829     1.2259     1.3207 C.ar    
  17 C17            0.8450     2.2679     0.5515 C.2     
  18 C18            0.8480     3.7310     0.4541 C.2     
  19 O19            1.7290     1.6969     1.1631 O.2     
  20 O20           -0.0674     4.4845    -0.1896 O.3     
  21 C21            1.7745     4.5700     1.0041 C.2     
  22 C22            1.3887     5.8759     0.6637 C.2     
  23 C23            0.2563     5.7784    -0.0670 C.2     
  24 N24            2.5564    -3.9138    -0.2374 N.am    
  25 C25           -7.1620     0.9133     2.3495 C.ar    
  26 C26           -8.3828     1.5542     2.4314 C.ar    
  27 C27           -8.7302     2.5058     1.4904 C.ar    
  28 C28           -7.8572     2.8195     0.4646 C.ar    
  29 C29           -6.6328     2.1867     0.3801 C.ar    
  30 C30           -6.7845    -0.1245     3.3750 C.3     
  31 C31            3.8499    -4.5959    -0.3260 C.3     
  32 C32            3.6330    -6.0871    -0.3177 C.ar    
  33 C33            3.4543    -6.7661    -1.5082 C.ar    
  34 C34            3.2552    -8.1343    -1.5005 C.ar    
  35 C35            3.2354    -8.8231    -0.3024 C.ar    
  36 C36            3.4151    -8.1440     0.8884 C.ar    
  37 C37            3.6184    -6.7769     0.8804 C.ar    
  38 S38            3.3894    -9.0220     2.4158 S.o2    
  39 O39            3.0441    -8.0748     3.4173 O.2     
  40 O40            2.6479   -10.2115     2.1824 O.2     
  41 N41            4.9438    -9.4950     2.7356 N.am    
  42 H42           -0.8825     2.0118    -0.4559 H       
  43 H43           -2.1057    -2.5618     0.0775 H       
  44 H44            0.0628    -3.7043    -0.0707 H       
  45 H45            2.0558     0.0946    -0.1932 H       
  46 H46           -2.5828     0.0692     2.2137 H       
  47 H47           -1.7889     1.4848     1.4820 H       
  48 H48           -3.4808    -1.4217    -1.0090 H       
  49 H49           -3.5724    -1.6309     0.7567 H       
  50 H50           -4.9493     0.5596    -0.8640 H       
  51 H51           -5.7432    -0.8561    -0.1323 H       
  52 H52           -4.0514     2.0505     2.3587 H       
  53 H53           -3.9597     2.2597     0.5930 H       
  54 H54            2.6368     4.2840     1.5881 H       
  55 H55            1.8995     6.7875     0.9368 H       
  56 H56           -0.2966     6.6073    -0.4838 H       
  57 H57            1.7377    -4.4314    -0.1852 H       
  58 H58           -9.0668     1.3116     3.2311 H       
  59 H59           -9.6857     3.0050     1.5563 H       
  60 H60           -8.1318     3.5630    -0.2690 H       
  61 H61           -5.9514     2.4324    -0.4210 H       
  62 H62           -6.2699     0.3569     4.2066 H       
  63 H63           -7.6850    -0.6175     3.7414 H       
  64 H64           -6.1258    -0.8634     2.9188 H       
  65 H65            4.3506    -4.3067    -1.2500 H       
  66 H66            4.4684    -4.3139     0.5260 H       
  67 H67            3.4697    -6.2279    -2.4444 H       
  68 H68            3.1149    -8.6648    -2.4308 H       
  69 H69            3.0793    -9.8917    -0.2964 H       
  70 H70            3.7588    -6.2464     1.8107 H       
  71 H71            5.2429    -9.5896     3.6535 H       
  72 H72            5.5552    -9.6775     2.0050 H       
@<TRIPOS>BOND
   1    1    2 1
   2    1   17 am
   3    1   42 1
   4    2    3 ar
   5    2    7 ar
   6    3    4 ar
   7    3    8 1
   8    4    5 ar
   9    4   43 1
  10    5    6 ar
  11    5   44 1
  12    6    7 ar
  13    6   14 1
  14    7   45 1
  15    8    9 1
  16    8   10 1
  17    9   13 1
  18    9   46 1
  19    9   47 1
  20   10   11 1
  21   10   48 1
  22   10   49 1
  23   11   12 1
  24   11   50 1
  25   11   51 1
  26   12   13 1
  27   12   16 1
  28   13   52 1
  29   13   53 1
  30   14   15 2
  31   14   24 am
  32   16   25 ar
  33   16   29 ar
  34   17   19 2
  35   17   18 1
  36   18   20 1
  37   18   21 2
  38   20   23 1
  39   21   22 1
  40   21   54 1
  41   22   23 2
  42   22   55 1
  43   23   56 1
  44   24   31 1
  45   24   57 1
  46   25   26 ar
  47   25   30 1
  48   26   27 ar
  49   26   58 1
  50   27   28 ar
  51   27   59 1
  52   28   29 ar
  53   28   60 1
  54   29   61 1
  55   30   62 1
  56   30   63 1
  57   30   64 1
  58   31   32 1
  59   31   65 1
  60   31   66 1
  61   32   33 ar
  62   32   37 ar
  63   33   34 ar
  64   33   67 1
  65   34   35 ar
  66   34   68 1
  67   35   36 ar
  68   35   69 1
  69   36   37 ar
  70   36   38 1
  71   37   70 1
  72   38   39 2
  73   38   40 2
  74   38   41 am
  75   41   71 1
  76   41   72 1

#	End of record

