#	Name: ASD01903111
#	Creating user name:	WinNT
#	Creation time:	15. 06. 2019 19:54

#	Modifying user name:	WinNT
#	Modification time:	15. 06. 2019 19:54

#	Program:	/corina/corina34_cracker 3.40 0067  02.08.2006

@<TRIPOS>MOLECULE
ASD01903111
  58   62    0    0    0
SMALL
NO_CHARGES


@<TRIPOS>ATOM
   1 C1             0.3578     1.0946     0.1204 C.ar    
   2 C2             0.5739    -0.2708    -0.0178 C.ar    
   3 C3            -0.4851    -1.1516     0.0877 C.ar    
   4 C4            -1.7652    -0.6717     0.3319 C.ar    
   5 C5            -1.9804     0.6938     0.4700 C.ar    
   6 C6            -0.9213     1.5733     0.3698 C.ar    
   7 N7            -2.8383    -1.5635     0.4385 N.am    
   8 C8            -2.6560    -2.7724     1.0056 C.2     
   9 C9            -3.8115    -3.6767     1.2094 C.ar    
  10 N10           -5.0239    -3.2908     0.8314 N.ar    
  11 C11           -6.0758    -4.0634     0.9940 C.ar    
  12 C12           -5.9554    -5.3175     1.5706 C.ar    
  13 C13           -4.7071    -5.7603     1.9800 C.ar    
  14 C14           -3.6157    -4.9275     1.7911 C.ar    
  15 O15           -1.5437    -3.1207     1.3499 O.2     
  16 Cl16           2.1743    -0.8699    -0.3237 Cl      
  17 N17            1.4335     1.9897     0.0137 N.am    
  18 C18            2.1684     2.3680     1.0668 C.2     
  19 C19            3.2393     3.3325     0.6058 C.3     
  20 C20            2.9932     3.4472    -0.9124 C.3     
  21 C21            1.8127     2.5311    -1.1505 C.2     
  22 O22            2.0020     1.9969     2.2089 O.2     
  23 O23            1.2888     2.3255    -2.2243 O.2     
  24 C24            3.0690     4.6727     1.2735 C.ar    
  25 C25            1.9405     5.4310     1.0237 C.ar    
  26 C26            1.7843     6.6604     1.6361 C.ar    
  27 C27            2.7564     7.1313     2.4987 C.ar    
  28 C28            3.8845     6.3727     2.7493 C.ar    
  29 C29            4.0386     5.1414     2.1402 C.ar    
  30 C30            4.6322     2.7638     0.8841 C.3     
  31 C31            4.8660     1.5579     0.0111 C.ar    
  32 C32            5.4426     1.7090    -1.2372 C.ar    
  33 C33            5.6575     0.6012    -2.0381 C.ar    
  34 C34            5.2960    -0.6552    -1.5906 C.ar    
  35 C35            4.7196    -0.8056    -0.3428 C.ar    
  36 C36            4.5096     0.3000     0.4598 C.ar    
  37 Cl37           5.8960     3.2878    -1.7990 Cl      
  38 H38           -0.3176    -2.2131    -0.0200 H       
  39 H39           -2.9759     1.0669     0.6599 H       
  40 H40           -1.0891     2.6347     0.4772 H       
  41 H41           -3.7133    -1.3116     0.1041 H       
  42 H42           -7.0468    -3.7153     0.6739 H       
  43 H43           -6.8257    -5.9438     1.7002 H       
  44 H44           -4.5874    -6.7338     2.4320 H       
  45 H45           -2.6285    -5.2404     2.0977 H       
  46 H46            2.7476     4.4737    -1.1847 H       
  47 H47            3.8631     3.0992    -1.4694 H       
  48 H48            1.1810     5.0630     0.3497 H       
  49 H49            0.9029     7.2531     1.4403 H       
  50 H50            2.6347     8.0922     2.9766 H       
  51 H51            4.6441     6.7408     3.4230 H       
  52 H52            4.9199     4.5486     2.3360 H       
  53 H53            5.3844     3.5218     0.6658 H       
  54 H54            4.7031     2.4728     1.9322 H       
  55 H55            6.1073     0.7186    -3.0129 H       
  56 H56            5.4633    -1.5199    -2.2157 H       
  57 H57            4.4369    -1.7877     0.0064 H       
  58 H58            4.0597     0.1819     1.4345 H       
@<TRIPOS>BOND
   1    1    2 ar
   2    1   17 1
   3    1    6 ar
   4    2    3 ar
   5    2   16 1
   6    3    4 ar
   7    3   38 1
   8    4    5 ar
   9    4    7 1
  10    5    6 ar
  11    5   39 1
  12    6   40 1
  13    7    8 am
  14    7   41 1
  15    8    9 1
  16    8   15 2
  17    9   10 ar
  18    9   14 ar
  19   10   11 ar
  20   11   12 ar
  21   11   42 1
  22   12   13 ar
  23   12   43 1
  24   13   14 ar
  25   13   44 1
  26   14   45 1
  27   17   18 am
  28   17   21 am
  29   18   19 1
  30   18   22 2
  31   19   20 1
  32   19   24 1
  33   19   30 1
  34   20   21 1
  35   20   46 1
  36   20   47 1
  37   21   23 2
  38   24   25 ar
  39   24   29 ar
  40   25   26 ar
  41   25   48 1
  42   26   27 ar
  43   26   49 1
  44   27   28 ar
  45   27   50 1
  46   28   29 ar
  47   28   51 1
  48   29   52 1
  49   30   31 1
  50   30   53 1
  51   30   54 1
  52   31   32 ar
  53   31   36 ar
  54   32   33 ar
  55   32   37 1
  56   33   34 ar
  57   33   55 1
  58   34   35 ar
  59   34   56 1
  60   35   36 ar
  61   35   57 1
  62   36   58 1

#	End of record

