#	Name: ASD03320034
#	Creating user name:	WinNT
#	Creation time:	15. 06. 2019 20:36

#	Modifying user name:	WinNT
#	Modification time:	15. 06. 2019 20:36

#	Program:	/corina/corina34_cracker 3.40 0067  02.08.2006

@<TRIPOS>MOLECULE
ASD03320034
  60   64    0    0    0
SMALL
NO_CHARGES


@<TRIPOS>ATOM
   1 C1            -0.0865     0.3395     0.8197 C.ar    
   2 C2            -0.0289    -1.0422     0.6387 C.ar    
   3 C3             1.0706     1.0863     0.7973 C.ar    
   4 C4             2.3018     0.4595     0.5933 C.ar    
   5 C5             2.3584    -0.9241     0.4121 C.ar    
   6 C6             1.2002    -1.6691     0.4348 C.ar    
   7 C7             3.5442     1.2601     0.5686 C.2     
   8 N8             3.5730     2.4397    -0.0828 N.am    
   9 O9             4.5400     0.8546     1.1357 O.2     
  10 C10           -1.2755    -1.8455     0.6634 C.ar    
  11 C11           -1.2309    -3.2255     0.4839 C.ar    
  12 C12           -2.4322    -3.9339     0.5160 C.ar    
  13 N13           -3.5675    -3.2701     0.7155 N.ar    
  14 C14           -3.5675    -1.9625     0.8813 C.ar    
  15 N15           -2.4561    -1.2576     0.8635 N.ar    
  16 N16           -2.4428    -5.3097     0.3422 N.pl3   
  17 C17           -3.6349    -6.0240     0.4919 C.ar    
  18 C18           -3.8514    -7.1791    -0.2479 C.ar    
  19 C19           -5.0317    -7.8830    -0.0974 C.ar    
  20 C20           -5.9961    -7.4372     0.7893 C.ar    
  21 C21           -5.7828    -6.2868     1.5266 C.ar    
  22 C22           -4.6033    -5.5828     1.3852 C.ar    
  23 C23            4.7633     3.2994    -0.0210 C.3     
  24 C24            5.2273     3.5975    -1.4522 C.3     
  25 N25            4.0690     4.0469    -2.2373 N.am    
  26 C26            2.8786     3.1872    -2.2990 C.3     
  27 C27            2.4168     2.8864    -0.8724 C.3     
  28 C28            4.0977     5.2264    -2.8886 C.2     
  29 C29            5.3406     6.0238    -2.9178 C.ar    
  30 O30            3.1007     5.6341    -3.4522 O.2     
  31 C31            5.3160     7.3765    -2.5649 C.ar    
  32 C32            6.4848     8.1157    -2.5945 C.ar    
  33 C33            7.6730     7.5192    -2.9717 C.ar    
  34 C34            7.7030     6.1801    -3.3222 C.ar    
  35 C35            6.5474     5.4290    -3.2924 C.ar    
  36 F36            4.1544     7.9598    -2.1965 F       
  37 Cl37          -5.3043    -9.3269    -1.0217 Cl      
  38 H38           -1.0391     0.8246     0.9731 H       
  39 H39            1.0258     2.1562     0.9372 H       
  40 H40            3.3100    -1.4096     0.2539 H       
  41 H41            1.2437    -2.7391     0.2947 H       
  42 H42           -0.2916    -3.7338     0.3237 H       
  43 H43           -4.5072    -1.4548     1.0411 H       
  44 H44           -1.6228    -5.7763     0.1168 H       
  45 H45           -3.0990    -7.5268    -0.9401 H       
  46 H46           -6.9175    -7.9885     0.9054 H       
  47 H47           -6.5376    -5.9413     2.2175 H       
  48 H48           -4.4375    -4.6847     1.9618 H       
  49 H49            4.5149     4.2323     0.4849 H       
  50 H50            5.5574     2.7863     0.5215 H       
  51 H51            5.9843     4.3816    -1.4355 H       
  52 H52            5.6429     2.6938    -1.8978 H       
  53 H53            2.0846     3.7002    -2.8415 H       
  54 H54            3.1270     2.2542    -2.8049 H       
  55 H55            1.6599     2.1023    -0.8906 H       
  56 H56            2.0013     3.7891    -0.4245 H       
  57 H57            6.4687     9.1608    -2.3228 H       
  58 H58            8.5828     8.1008    -2.9936 H       
  59 H59            8.6356     5.7213    -3.6158 H       
  60 H60            6.5737     4.3847    -3.5663 H       
@<TRIPOS>BOND
   1    1    2 ar
   2    1    3 ar
   3    1   38 1
   4    2   10 1
   5    2    6 ar
   6    3    4 ar
   7    3   39 1
   8    4    5 ar
   9    4    7 1
  10    5    6 ar
  11    5   40 1
  12    6   41 1
  13    7    8 am
  14    7    9 2
  15    8   23 1
  16    8   27 1
  17   10   11 ar
  18   10   15 ar
  19   11   12 ar
  20   11   42 1
  21   12   13 ar
  22   12   16 1
  23   13   14 ar
  24   14   15 ar
  25   14   43 1
  26   16   17 1
  27   16   44 1
  28   17   18 ar
  29   17   22 ar
  30   18   19 ar
  31   18   45 1
  32   19   20 ar
  33   19   37 1
  34   20   21 ar
  35   20   46 1
  36   21   22 ar
  37   21   47 1
  38   22   48 1
  39   23   24 1
  40   23   49 1
  41   23   50 1
  42   24   25 1
  43   24   51 1
  44   24   52 1
  45   25   26 1
  46   25   28 am
  47   26   27 1
  48   26   53 1
  49   26   54 1
  50   27   55 1
  51   27   56 1
  52   28   29 1
  53   28   30 2
  54   29   31 ar
  55   29   35 ar
  56   31   32 ar
  57   31   36 1
  58   32   33 ar
  59   32   57 1
  60   33   34 ar
  61   33   58 1
  62   34   35 ar
  63   34   59 1
  64   35   60 1

#	End of record

