#	Name: ASD01410364
#	Creating user name:	WinNT
#	Creation time:	15. 06. 2019 19:17

#	Modifying user name:	WinNT
#	Modification time:	15. 06. 2019 19:17

#	Program:	/corina/corina34_cracker 3.40 0067  02.08.2006

@<TRIPOS>MOLECULE
ASD01410364
  58   62    0    0    0
SMALL
NO_CHARGES


@<TRIPOS>ATOM
   1 C1             0.0076     1.4724     0.0432 C.ar    
   2 C2             0.0508     0.0741     0.1473 C.ar    
   3 C3            -1.1008    -0.6507     0.1788 C.ar    
   4 C4            -2.3413    -0.0009     0.1071 C.ar    
   5 C5            -2.3948     1.4044     0.0023 C.ar    
   6 C6            -1.2176     2.1348    -0.0233 C.ar    
   7 C7             1.2625     2.2451     0.0101 C.2     
   8 O8             2.4481     1.6081     0.0798 O.3     
   9 O9             1.2279     3.4564    -0.0800 O.2     
  10 C10           -3.6796    -0.4621     0.1156 C.2     
  11 C11           -4.4926     0.6205     0.0201 C.2     
  12 N12           -3.7271     1.7602    -0.0494 N.pl3   
  13 C13           -5.9705     0.5804    -0.0047 C.ar    
  14 C14           -6.7074     1.3241     0.9182 C.ar    
  15 C15           -8.0861     1.2823     0.8896 C.ar    
  16 C16           -8.7383     0.5049    -0.0509 C.ar    
  17 C17           -8.0137    -0.2352    -0.9682 C.ar    
  18 C18           -6.6346    -0.1969    -0.9547 C.ar    
  19 C19           -4.1227    -1.8992     0.2128 C.3     
  20 C20           -3.5593    -2.6878    -0.9711 C.3     
  21 C21           -4.0091    -4.1468    -0.8724 C.3     
  22 C22           -3.4940    -4.7520     0.4350 C.3     
  23 C23           -4.0575    -3.9634     1.6189 C.3     
  24 C24           -3.6076    -2.5044     1.5202 C.3     
  25 C25           -4.2411     3.1276    -0.1598 C.3     
  26 C26           -4.3049     3.5246    -1.6121 C.ar    
  27 C27           -5.4181     3.2065    -2.3674 C.ar    
  28 C28           -5.4766     3.5706    -3.6996 C.ar    
  29 C29           -4.4220     4.2532    -4.2765 C.ar    
  30 C30           -3.3092     4.5721    -3.5210 C.ar    
  31 C31           -3.2525     4.2118    -2.1877 C.ar    
  32 H32            1.0041    -0.4306     0.2024 H       
  33 H33           -1.0592    -1.7270     0.2587 H       
  34 H34           -1.2487     3.2113    -0.1034 H       
  35 H35            3.2436     2.1573     0.0544 H       
  36 H36           -6.1995     1.9308     1.6532 H       
  37 H37           -8.6575     1.8573     1.6032 H       
  38 H38           -9.8177     0.4753    -0.0687 H       
  39 H39           -8.5288    -0.8406    -1.6994 H       
  40 H40           -6.0701    -0.7750    -1.6714 H       
  41 H41           -5.2116    -1.9456     0.1951 H       
  42 H42           -3.9262    -2.2566    -1.9025 H       
  43 H43           -2.4704    -2.6413    -0.9534 H       
  44 H44           -5.0980    -4.1933    -0.8901 H       
  45 H45           -3.6077    -4.7086    -1.7158 H       
  46 H46           -3.8145    -5.7914     0.5053 H       
  47 H47           -2.4052    -4.7055     0.4527 H       
  48 H48           -5.1463    -4.0099     1.6012 H       
  49 H49           -3.6905    -4.3946     2.5503 H       
  50 H50           -2.5187    -2.4579     1.5379 H       
  51 H51           -4.0090    -1.9425     2.3636 H       
  52 H52           -5.2396     3.1765     0.2745 H       
  53 H53           -3.5788     3.8089     0.3744 H       
  54 H54           -6.2420     2.6732    -1.9166 H       
  55 H55           -6.3461     3.3215    -4.2898 H       
  56 H56           -4.4674     4.5371    -5.3176 H       
  57 H57           -2.4851     5.1051    -3.9719 H       
  58 H58           -2.3831     4.4609    -1.5974 H       
@<TRIPOS>BOND
   1    1    2 ar
   2    1    7 1
   3    1    6 ar
   4    2    3 ar
   5    2   32 1
   6    3    4 ar
   7    3   33 1
   8    4    5 ar
   9    4   10 1
  10    5    6 ar
  11    5   12 1
  12    6   34 1
  13    7    8 1
  14    7    9 2
  15    8   35 1
  16   10   11 2
  17   10   19 1
  18   11   12 1
  19   11   13 1
  20   12   25 1
  21   13   14 ar
  22   13   18 ar
  23   14   15 ar
  24   14   36 1
  25   15   16 ar
  26   15   37 1
  27   16   17 ar
  28   16   38 1
  29   17   18 ar
  30   17   39 1
  31   18   40 1
  32   19   20 1
  33   19   24 1
  34   19   41 1
  35   20   21 1
  36   20   42 1
  37   20   43 1
  38   21   22 1
  39   21   44 1
  40   21   45 1
  41   22   23 1
  42   22   46 1
  43   22   47 1
  44   23   24 1
  45   23   48 1
  46   23   49 1
  47   24   50 1
  48   24   51 1
  49   25   26 1
  50   25   52 1
  51   25   53 1
  52   26   27 ar
  53   26   31 ar
  54   27   28 ar
  55   27   54 1
  56   28   29 ar
  57   28   55 1
  58   29   30 ar
  59   29   56 1
  60   30   31 ar
  61   30   57 1
  62   31   58 1

#	End of record

