#	Name: ASD01916120
#	Creating user name:	WinNT
#	Creation time:	15. 06. 2019 20:06

#	Modifying user name:	WinNT
#	Modification time:	15. 06. 2019 20:06

#	Program:	/corina/corina34_cracker 3.40 0067  02.08.2006

@<TRIPOS>MOLECULE
ASD01916120
  44   47    0    0    0
SMALL
NO_CHARGES


@<TRIPOS>ATOM
   1 C1             0.0787     1.3898    -0.0556 C.ar    
   2 C2             0.0838     0.0083    -0.0557 C.ar    
   3 C3             1.2884    -0.6797    -0.0537 C.ar    
   4 C4             2.4853     0.0218    -0.0516 C.ar    
   5 C5             2.4749     1.4032    -0.0515 C.ar    
   6 C6             1.2730     2.0866    -0.0534 C.ar    
   7 O7             1.2960    -2.0387    -0.0534 O.3     
   8 C8             2.5729    -2.6803    -0.0513 C.3     
   9 C9             2.3838    -4.1754    -0.0512 C.2     
  10 C10            1.1548    -4.8473    -0.0530 C.2     
  11 N11            3.3407    -5.0703    -0.0553 N.2     
  12 N12            2.7523    -6.3378    -0.0581 N.pl3   
  13 C13            1.4097    -6.1694    -0.0516 C.2     
  14 C14            3.4350    -7.6344    -0.0755 C.3     
  15 C15            2.4617    -8.7241     0.3871 C.3     
  16 N16            1.1723    -8.5444    -0.2975 N.am    
  17 C17            0.4154    -7.3062    -0.0384 C.3     
  18 C18            0.6971    -9.4825    -1.1404 C.2     
  19 C19           -0.6569    -9.3421    -1.7143 C.ar    
  20 O20            1.3826   -10.4443    -1.4285 O.2     
  21 C21           -0.9146    -9.7765    -3.0163 C.ar    
  22 C22           -2.1799    -9.6435    -3.5467 C.ar    
  23 C23           -3.1958    -9.0796    -2.7901 C.ar    
  24 C24           -2.9452    -8.6462    -1.4970 C.ar    
  25 C25           -1.6850    -8.7797    -0.9548 C.ar    
  26 F26           -4.4341    -8.9516    -3.3148 F       
  27 H27           -0.8588     1.9259    -0.0617 H       
  28 H28           -0.8493    -0.5355    -0.0571 H       
  29 H29            3.4244    -0.5116    -0.0496 H       
  30 H30            3.4064     1.9498    -0.0494 H       
  31 H31            1.2669     3.1666    -0.0533 H       
  32 H32            3.1296    -2.3846    -0.9405 H       
  33 H33            3.1269    -2.3841     0.8395 H       
  34 H34            0.1776    -4.3873    -0.0550 H       
  35 H35            3.7730    -7.8543    -1.0882 H       
  36 H36            4.2927    -7.6033     0.5964 H       
  37 H37            2.8701    -9.7047     0.1426 H       
  38 H38            2.3155    -8.6482     1.4645 H       
  39 H39           -0.0677    -7.3629     0.9370 H       
  40 H40           -0.3329    -7.1580    -0.8170 H       
  41 H41           -0.1239   -10.2155    -3.6066 H       
  42 H42           -2.3802    -9.9788    -4.5536 H       
  43 H43           -3.7400    -8.2074    -0.9121 H       
  44 H44           -1.4910    -8.4421     0.0526 H       
@<TRIPOS>BOND
   1    1    2 ar
   2    1    6 ar
   3    1   27 1
   4    2    3 ar
   5    2   28 1
   6    3    4 ar
   7    3    7 1
   8    4    5 ar
   9    4   29 1
  10    5    6 ar
  11    5   30 1
  12    6   31 1
  13    7    8 1
  14    8    9 1
  15    8   32 1
  16    8   33 1
  17    9   10 1
  18    9   11 2
  19   10   13 2
  20   10   34 1
  21   11   12 1
  22   12   13 1
  23   12   14 1
  24   13   17 1
  25   14   15 1
  26   14   35 1
  27   14   36 1
  28   15   16 1
  29   15   37 1
  30   15   38 1
  31   16   17 1
  32   16   18 am
  33   17   39 1
  34   17   40 1
  35   18   19 1
  36   18   20 2
  37   19   21 ar
  38   19   25 ar
  39   21   22 ar
  40   21   41 1
  41   22   23 ar
  42   22   42 1
  43   23   24 ar
  44   23   26 1
  45   24   25 ar
  46   24   43 1
  47   25   44 1

#	End of record

