#	Name: ASD02198394
#	Creating user name:	WinNT
#	Creation time:	15. 06. 2019 20:19

#	Modifying user name:	WinNT
#	Modification time:	15. 06. 2019 20:19

#	Program:	/corina/corina34_cracker 3.40 0067  02.08.2006

@<TRIPOS>MOLECULE
ASD02198394
  42   45    0    0    0
SMALL
NO_CHARGES


@<TRIPOS>ATOM
   1 C1            -0.2138     1.0689    -0.3399 C.2     
   2 C2            -0.1176    -0.2750    -0.3554 C.2     
   3 S3             1.3945     1.7702    -0.2166 S.3     
   4 C4             2.1242     0.1703    -0.1923 C.2     
   5 C5             1.1712    -0.7620    -0.2738 C.2     
   6 S6             3.8524    -0.1539    -0.0784 S.o2    
   7 N7             4.4420    -0.2179    -1.6246 N.am    
   8 C8             4.3246     0.8907    -2.4619 C.ar    
   9 C9             4.0846     0.7173    -3.8432 C.ar    
  10 C10            3.9692     1.8613    -4.6700 C.ar    
  11 C11            4.0949     3.1425    -4.1083 C.ar    
  12 C12            4.3266     3.2791    -2.7735 C.ar    
  13 C13            4.4362     2.1639    -1.9476 C.ar    
  14 N14            3.9666    -0.5022    -4.3740 N.ar    
  15 C15            3.7442    -0.6697    -5.6553 C.ar    
  16 C16            3.6206     0.4117    -6.5245 C.ar    
  17 C17            3.7299     1.6865    -6.0461 C.ar    
  18 O18            4.4365     0.9914     0.5267 O.2     
  19 O19            3.9804    -1.4650     0.4544 O.2     
  20 C20           -1.4760     1.8359    -0.4206 C.2     
  21 N21           -2.6878     1.3274    -0.5185 N.2     
  22 C22           -1.5965     3.2407    -0.4003 C.2     
  23 C23           -2.9089     3.5448    -0.4945 C.2     
  24 N24           -3.6016     2.3877    -0.5686 N.pl3   
  25 C25           -5.0569     2.2632    -0.6813 C.3     
  26 C26           -3.4976     4.9319    -0.5105 C.3     
  27 F27           -2.4656     5.8763    -0.5274 F       
  28 F28           -4.2916     5.0884    -1.6517 F       
  29 F29           -4.2821     5.1188     0.6326 F       
  30 H30           -0.9809    -0.9201    -0.4256 H       
  31 H31            1.3928    -1.8190    -0.2755 H       
  32 H32            4.8691    -1.0267    -1.9477 H       
  33 H33            4.0081     4.0183    -4.7344 H       
  34 H34            4.4225     4.2674    -2.3486 H       
  35 H35            4.6202     2.2983    -0.8919 H       
  36 H36            3.6548    -1.6722    -6.0470 H       
  37 H37            3.4381     0.2424    -7.5754 H       
  38 H38            3.6365     2.5366    -6.7056 H       
  39 H39           -0.7838     3.9477    -0.3225 H       
  40 H40           -5.3402     2.2514    -1.7338 H       
  41 H41           -5.3801     1.3363    -0.2077 H       
  42 H42           -5.5334     3.1095    -0.1863 H       
@<TRIPOS>BOND
   1    1    2 2
   2    1    3 1
   3    1   20 1
   4    2    5 1
   5    2   30 1
   6    3    4 1
   7    4    5 2
   8    4    6 1
   9    5   31 1
  10    6    7 am
  11    6   18 2
  12    6   19 2
  13    7    8 1
  14    7   32 1
  15    8    9 ar
  16    8   13 ar
  17    9   10 ar
  18    9   14 ar
  19   10   11 ar
  20   10   17 ar
  21   11   12 ar
  22   11   33 1
  23   12   13 ar
  24   12   34 1
  25   13   35 1
  26   14   15 ar
  27   15   16 ar
  28   15   36 1
  29   16   17 ar
  30   16   37 1
  31   17   38 1
  32   20   21 2
  33   20   22 1
  34   21   24 1
  35   22   23 2
  36   22   39 1
  37   23   24 1
  38   23   26 1
  39   24   25 1
  40   25   40 1
  41   25   41 1
  42   25   42 1
  43   26   27 1
  44   26   28 1
  45   26   29 1

#	End of record

