#	Name: ASD02820010
#	Creating user name:	WinNT
#	Creation time:	15. 06. 2019 20:26

#	Modifying user name:	WinNT
#	Modification time:	15. 06. 2019 20:26

#	Program:	/corina/corina34_cracker 3.40 0067  02.08.2006

@<TRIPOS>MOLECULE
ASD02820010
  45   47    0    0    0
SMALL
NO_CHARGES


@<TRIPOS>ATOM
   1 C1            -0.0179     1.4684     0.0101 C.3     
   2 N2             0.0021    -0.0041     0.0020 N.am    
   3 C3             1.1959    -0.6293    -0.0127 C.2     
   4 N4             2.3530     0.0444    -0.0202 N.am    
   5 C5             2.4357     1.4075    -0.0132 C.2     
   6 C6             1.3234     2.1732     0.0011 C.2     
   7 C7            -0.7929     1.9291    -1.1974 C.ar    
   8 C8            -1.6581     3.0024    -1.0952 C.ar    
   9 C9            -2.3690     3.4250    -2.2028 C.ar    
  10 C10           -2.2145     2.7746    -3.4127 C.ar    
  11 C11           -1.3487     1.7019    -3.5152 C.ar    
  12 C12           -0.6345     1.2820    -2.4086 C.ar    
  13 C13           -2.9903     3.2347    -4.6200 C.3     
  14 C14            3.7903     2.0679    -0.0216 C.3     
  15 C15            1.4077     3.5852     0.0074 C.2     
  16 O16            0.2813     4.3283     0.0217 O.3     
  17 C17            0.4410     5.7483     0.0274 C.3     
  18 C18           -0.9148     6.4062     0.0434 C.ar    
  19 O19            2.4958     4.1298    -0.0000 O.2     
  20 O20            1.2231    -1.8446    -0.0191 O.2     
  21 C21           -1.5503     6.7088    -1.1463 C.ar    
  22 C22           -1.5254     6.7018     1.2478 C.ar    
  23 C23           -2.7689     7.3053     1.2625 C.ar    
  24 C24           -3.4017     7.6135     0.0728 C.ar    
  25 C25           -2.7939     7.3122    -1.1317 C.ar    
  26 F26           -2.2493     4.1998    -5.3105 F       
  27 F27           -3.2340     2.1438    -5.4613 F       
  28 F28           -4.2079     3.7877    -4.2089 F       
  29 H29           -0.5617     1.7922     0.8976 H       
  30 H30           -0.8244    -0.5119     0.0075 H       
  31 H31            3.1788    -0.4643    -0.0308 H       
  32 H32           -1.7788     3.5106    -0.1499 H       
  33 H33           -3.0455     4.2631    -2.1227 H       
  34 H34           -1.2282     1.1936    -4.4604 H       
  35 H35            0.0448     0.4463    -2.4895 H       
  36 H36            4.5672     1.3035    -0.0329 H       
  37 H37            3.8837     2.6940    -0.9089 H       
  38 H38            3.8997     2.6840     0.8709 H       
  39 H39            1.0005     6.0475     0.9137 H       
  40 H40            0.9838     6.0565    -0.8662 H       
  41 H41           -1.0750     6.4741    -2.0873 H       
  42 H42           -1.0310     6.4611     2.1773 H       
  43 H43           -3.2463     7.5357     2.2035 H       
  44 H44           -4.3735     8.0846     0.0842 H       
  45 H45           -3.2902     7.5489    -2.0612 H       
@<TRIPOS>BOND
   1    1    2 1
   2    1    6 1
   3    1    7 1
   4    1   29 1
   5    2    3 am
   6    2   30 1
   7    3    4 am
   8    3   20 2
   9    4    5 1
  10    4   31 1
  11    5    6 2
  12    5   14 1
  13    6   15 1
  14    7    8 ar
  15    7   12 ar
  16    8    9 ar
  17    8   32 1
  18    9   10 ar
  19    9   33 1
  20   10   11 ar
  21   10   13 1
  22   11   12 ar
  23   11   34 1
  24   12   35 1
  25   13   26 1
  26   13   27 1
  27   13   28 1
  28   14   36 1
  29   14   37 1
  30   14   38 1
  31   15   16 1
  32   15   19 2
  33   16   17 1
  34   17   18 1
  35   17   39 1
  36   17   40 1
  37   18   22 ar
  38   18   21 ar
  39   21   25 ar
  40   21   41 1
  41   22   23 ar
  42   22   42 1
  43   23   24 ar
  44   23   43 1
  45   24   25 ar
  46   24   44 1
  47   25   45 1

#	End of record

