#	Name: ASD05490127
#	Creating user name:	WinNT
#	Creation time:	15. 06. 2019 21:01

#	Modifying user name:	WinNT
#	Modification time:	15. 06. 2019 21:01

#	Program:	/corina/corina34_cracker 3.40 0067  02.08.2006

@<TRIPOS>MOLECULE
ASD05490127
  71   76    0    0    0
SMALL
NO_CHARGES


@<TRIPOS>ATOM
   1 O1            -2.2665     1.8171     0.0253 O.2     
   2 N2            -0.0178     1.4608     0.0101 N.am    
   3 O3             4.5863     2.8160    -0.0274 O.3     
   4 N4             2.8511     4.3367    -0.0019 N.ar    
   5 C5             1.5540     4.6376     0.0121 C.ar    
   6 C6             3.2565     3.0770    -0.0133 C.ar    
   7 N7             2.4054     2.0644    -0.0102 N.ar    
   8 C8             1.0946     2.2826     0.0039 C.ar    
   9 C9             0.6266     3.5971     0.0154 C.ar    
  10 N10            1.1342     5.9598     0.0237 N.pl3   
  11 C11           -1.1223     2.2312     0.0189 C.2     
  12 N12           -0.7663     3.5310     0.0284 N.am    
  13 C13            5.4681     3.9405    -0.0289 C.3     
  14 C14            6.9178     3.4517    -0.0454 C.3     
  15 C15            7.8616     4.6514    -0.1729 C.3     
  16 C16            9.3102     4.1602    -0.1094 C.3     
  17 C17            0.0021    -0.0041     0.0020 C.3     
  18 C18            0.0225    -0.5140     1.4200 C.ar    
  19 C19           -1.1675    -0.7634     2.0797 C.ar    
  20 C20           -1.1548    -1.2301     3.3785 C.ar    
  21 C21            0.0599    -1.4503     4.0251 C.ar    
  22 C22            1.2557    -1.1977     3.3555 C.ar    
  23 C23            1.2311    -0.7362     2.0550 C.ar    
  24 C24            0.0799    -1.9513     5.4212 C.ar    
  25 O25            9.5192     3.4543     1.1154 O.3     
  26 C26            8.6972     2.2954     1.2684 C.3     
  27 C27            7.2240     2.7117     1.2603 C.3     
  28 C28            1.2991    -2.1686     6.0599 C.ar    
  29 N29           -1.0630    -2.1836     6.0532 N.ar    
  30 C30           -1.0886    -2.6288     7.2931 C.ar    
  31 C31            0.0837    -2.8713     7.9845 C.ar    
  32 C32            1.3019    -2.6363     7.3625 C.ar    
  33 N33            0.0307    -4.8489     9.3957 N.3     
  34 C34            0.2269    -5.3847    10.7552 C.3     
  35 C35           -0.9780    -6.2977    11.0651 C.3     
  36 C36           -1.5010    -6.6770     9.6547 C.3     
  37 C37           -1.2473    -5.3689     8.8646 C.3     
  38 C38            0.0392    -3.3800     9.4024 C.3     
  39 H39            1.7881     6.6762     0.0216 H       
  40 H40            0.1868     6.1678     0.0339 H       
  41 H41           -1.3727     4.2880     0.0359 H       
  42 H42            5.2796     4.5488    -0.9135 H       
  43 H43            5.2964     4.5381     0.8664 H       
  44 H44            7.0663     2.7796    -0.8906 H       
  45 H45            7.6881     5.1518    -1.1256 H       
  46 H46            7.6772     5.3484     0.6446 H       
  47 H47            9.5056     3.4949    -0.9504 H       
  48 H48            9.9860     5.0141    -0.1567 H       
  49 H49           -0.8878    -0.3767    -0.5053 H       
  50 H50            0.8920    -0.3525    -0.5222 H       
  51 H51           -2.1083    -0.5924     1.5776 H       
  52 H52           -2.0845    -1.4238     3.8928 H       
  53 H53            2.1998    -1.3663     3.8520 H       
  54 H54            2.1571    -0.5400     1.5351 H       
  55 H55            8.8846     1.6056     0.4454 H       
  56 H56            8.9314     1.8059     2.2137 H       
  57 H57            7.0267     3.3695     2.1067 H       
  58 H58            6.5945     1.8248     1.3325 H       
  59 H59            2.2289    -1.9753     5.5455 H       
  60 H60           -2.0383    -2.8062     7.7759 H       
  61 H61            2.2312    -2.8181     7.8818 H       
  62 H62            1.1502    -5.9626    10.7964 H       
  63 H63            0.2667    -4.5664    11.4741 H       
  64 H64           -0.6583    -7.1862    11.6095 H       
  65 H65           -1.7392    -5.7544    11.6251 H       
  66 H66           -0.9280    -7.5039     9.2351 H       
  67 H67           -2.5641    -6.9158     9.6836 H       
  68 H68           -2.0513    -4.6552     9.0442 H       
  69 H69           -1.1575    -5.5805     7.7991 H       
  70 H70            0.9159    -3.0242     9.9437 H       
  71 H71           -0.8633    -3.0137     9.8917 H       
@<TRIPOS>BOND
   1    1   11 2
   2    2   17 1
   3    2    8 1
   4    2   11 am
   5    3   13 1
   6    3    6 1
   7    4    5 ar
   8    4    6 ar
   9    5   10 1
  10    5    9 ar
  11    6    7 ar
  12    7    8 ar
  13    8    9 ar
  14    9   12 1
  15   10   39 1
  16   10   40 1
  17   11   12 am
  18   12   41 1
  19   13   14 1
  20   13   42 1
  21   13   43 1
  22   14   15 1
  23   14   27 1
  24   14   44 1
  25   15   16 1
  26   15   45 1
  27   15   46 1
  28   16   25 1
  29   16   47 1
  30   16   48 1
  31   17   18 1
  32   17   49 1
  33   17   50 1
  34   18   19 ar
  35   18   23 ar
  36   19   20 ar
  37   19   51 1
  38   20   21 ar
  39   20   52 1
  40   21   22 ar
  41   21   24 1
  42   22   23 ar
  43   22   53 1
  44   23   54 1
  45   24   28 ar
  46   24   29 ar
  47   25   26 1
  48   26   27 1
  49   26   55 1
  50   26   56 1
  51   27   57 1
  52   27   58 1
  53   28   32 ar
  54   28   59 1
  55   29   30 ar
  56   30   31 ar
  57   30   60 1
  58   31   32 ar
  59   31   38 1
  60   32   61 1
  61   33   34 1
  62   33   37 1
  63   33   38 1
  64   34   35 1
  65   34   62 1
  66   34   63 1
  67   35   36 1
  68   35   64 1
  69   35   65 1
  70   36   37 1
  71   36   66 1
  72   36   67 1
  73   37   68 1
  74   37   69 1
  75   38   70 1
  76   38   71 1

#	End of record

