#	Name: ASD03331435
#	Creating user name:	WinNT
#	Creation time:	15. 06. 2019 20:39

#	Modifying user name:	WinNT
#	Modification time:	15. 06. 2019 20:39

#	Program:	/corina/corina34_cracker 3.40 0067  02.08.2006

@<TRIPOS>MOLECULE
ASD03331435
  76   80    0    0    0
SMALL
NO_CHARGES


@<TRIPOS>ATOM
   1 N1            -2.0341     3.7856     7.3920 N.3     
   2 C2            -0.7786     4.3469     7.9071 C.3     
   3 C3            -0.9448     4.6983     9.3873 C.3     
   4 C4            -1.3192     3.4353    10.1678 C.3     
   5 C5            -2.6035     2.8437     9.5804 C.3     
   6 C6            -2.3893     2.5460     8.0946 C.3     
   7 N7            -2.8071     3.9322     3.2695 N.am    
   8 C8            -3.1649     2.6770     3.9442 C.3     
   9 C9            -3.2628     2.9376     5.4506 C.3     
  10 C10           -1.9562     3.5649     5.9418 C.3     
  11 C11           -1.7330     4.9032     5.2336 C.3     
  12 C12           -1.6178     4.6649     3.7248 C.3     
  13 C13           -0.8081     2.6379     5.6360 C.2     
  14 O14            0.2067     3.0740     5.1350 O.2     
  15 N15           -0.9090     1.3241     5.9192 N.am    
  16 F16           -0.2844     2.4993    10.0667 F       
  17 F17           -1.5268     3.7611    11.5124 F       
  18 C18           -3.5526     4.3997     2.2486 C.2     
  19 O19           -3.3017     5.4846     1.7593 O.2     
  20 N20           -6.6587     3.0089     0.9464 N.pl3   
  21 C21           -5.9236     4.0606     1.3841 C.2     
  22 C22           -4.6712     3.5969     1.7255 C.2     
  23 C23           -4.6635     2.1995     1.4776 C.2     
  24 C24           -5.8913     1.8691     1.0022 C.2     
  25 C25           -6.3942     5.4890     1.4806 C.3     
  26 C26           -7.0100     5.7310     2.8601 C.3     
  27 C27           -7.4878     7.1811     2.9581 C.3     
  28 O28           -8.0630     7.4071     4.2466 O.3     
  29 C29           -6.3296     0.5123     0.6099 C.ar    
  30 C30           -5.5477    -0.2538    -0.2577 C.ar    
  31 C31           -5.9623    -1.5198    -0.6196 C.ar    
  32 C32           -7.1504    -2.0298    -0.1240 C.ar    
  33 C33           -7.9294    -1.2746     0.7359 C.ar    
  34 C34           -7.5229    -0.0101     1.1095 C.ar    
  35 Cl35          -7.6656    -3.6227    -0.5834 Cl      
  36 Cl36          -4.0583     0.3850    -0.8801 Cl      
  37 C37           -7.9896     3.0721     0.5121 C.ar    
  38 C38           -8.2945     2.8696    -0.8272 C.ar    
  39 C39           -9.6069     2.9320    -1.2527 C.ar    
  40 C40          -10.6178     3.1961    -0.3452 C.ar    
  41 C41          -10.3165     3.3988     0.9902 C.ar    
  42 C42           -9.0062     3.3317     1.4215 C.ar    
  43 Cl43         -12.2666     3.2739    -0.8830 Cl      
  44 H44            0.0199     3.6134     7.7954 H       
  45 H45           -0.5261     5.2468     7.3463 H       
  46 H46           -0.0081     5.1004     9.7732 H       
  47 H47           -1.7339     5.4421     9.4983 H       
  48 H48           -2.8519     1.9208    10.1043 H       
  49 H49           -3.4187     3.5583     9.6945 H       
  50 H50           -3.3065     2.1380     7.6700 H       
  51 H51           -1.5832     1.8210     7.9821 H       
  52 H52           -4.1259     2.3228     3.5714 H       
  53 H53           -2.3973     1.9273     3.7522 H       
  54 H54           -4.0904     3.6186     5.6490 H       
  55 H55           -3.4329     1.9958     5.9724 H       
  56 H56           -2.5751     5.5657     5.4341 H       
  57 H57           -0.8143     5.3604     5.6010 H       
  58 H58           -0.7240     4.0773     3.5148 H       
  59 H59           -1.5580     5.6223     3.2072 H       
  60 H60           -1.7490     0.9602     6.2398 H       
  61 H61           -0.1416     0.7424     5.8023 H       
  62 H62           -3.8355     1.5249     1.6377 H       
  63 H63           -5.5479     6.1608     1.3376 H       
  64 H64           -7.1422     5.6779     0.7106 H       
  65 H65           -7.8564     5.0591     3.0031 H       
  66 H66           -6.2620     5.5420     3.6301 H       
  67 H67           -6.6414     7.8530     2.8152 H       
  68 H68           -8.2358     7.3701     2.1881 H       
  69 H69           -8.3881     8.3080     4.3796 H       
  70 H70           -5.3592    -2.1133    -1.2906 H       
  71 H71           -8.8553    -1.6779     1.1188 H       
  72 H72           -8.1294     0.5759     1.7842 H       
  73 H73           -7.5058     2.6638    -1.5359 H       
  74 H74           -9.8445     2.7749    -2.2944 H       
  75 H75          -11.1071     3.6051     1.6964 H       
  76 H76           -8.7721     3.4852     2.4646 H       
@<TRIPOS>BOND
   1    1    2 1
   2    1    6 1
   3    1   10 1
   4    2    3 1
   5    2   44 1
   6    2   45 1
   7    3    4 1
   8    3   46 1
   9    3   47 1
  10    4    5 1
  11    4   16 1
  12    4   17 1
  13    5    6 1
  14    5   48 1
  15    5   49 1
  16    6   50 1
  17    6   51 1
  18    7    8 1
  19    7   12 1
  20    7   18 am
  21    8    9 1
  22    8   52 1
  23    8   53 1
  24    9   10 1
  25    9   54 1
  26    9   55 1
  27   10   11 1
  28   10   13 1
  29   11   12 1
  30   11   56 1
  31   11   57 1
  32   12   58 1
  33   12   59 1
  34   13   14 2
  35   13   15 am
  36   15   60 1
  37   15   61 1
  38   18   19 2
  39   18   22 1
  40   20   21 1
  41   20   24 1
  42   20   37 1
  43   21   22 2
  44   21   25 1
  45   22   23 1
  46   23   24 2
  47   23   62 1
  48   24   29 1
  49   25   26 1
  50   25   63 1
  51   25   64 1
  52   26   27 1
  53   26   65 1
  54   26   66 1
  55   27   28 1
  56   27   67 1
  57   27   68 1
  58   28   69 1
  59   29   30 ar
  60   29   34 ar
  61   30   31 ar
  62   30   36 1
  63   31   32 ar
  64   31   70 1
  65   32   33 ar
  66   32   35 1
  67   33   34 ar
  68   33   71 1
  69   34   72 1
  70   37   38 ar
  71   37   42 ar
  72   38   39 ar
  73   38   73 1
  74   39   40 ar
  75   39   74 1
  76   40   41 ar
  77   40   43 1
  78   41   42 ar
  79   41   75 1
  80   42   76 1

#	End of record

