#	Name: ASD07930038
#	Creating user name:	WinNT
#	Creation time:	15. 06. 2019 21:11

#	Modifying user name:	WinNT
#	Modification time:	15. 06. 2019 21:11

#	Program:	/corina/corina34_cracker 3.40 0067  02.08.2006

@<TRIPOS>MOLECULE
ASD07930038
  53   57    0    0    0
SMALL
NO_CHARGES


@<TRIPOS>ATOM
   1 C1            -0.0167     1.3807     0.0096 C.2     
   2 N2             0.0021    -0.0041     0.0020 N.am    
   3 N3             1.2023     2.0320     0.0015 N.pl3   
   4 C4             2.2545     1.5040    -0.8785 C.3     
   5 C5             2.4301    -0.0046    -0.6026 C.3     
   6 C6             1.1260    -0.6674    -0.3006 C.2     
   7 C7             3.6038     2.1081    -0.4355 C.3     
   8 N8             4.2432     1.1401     0.4737 N.3     
   9 C9             3.3350    -0.0129     0.6493 C.3     
  10 C10            4.5423     1.7266     1.6925 C.ar    
  11 N11            4.2401     3.0015     1.8867 N.ar    
  12 C12            4.5130     3.5933     3.0431 C.ar    
  13 C13            5.1245     2.8529     4.0557 C.ar    
  14 C14            5.4236     1.5241     3.8123 C.ar    
  15 N15            5.1182     0.9969     2.6358 N.ar    
  16 F16            5.4181     3.4206     5.2459 F       
  17 O17            4.2024     4.8985     3.2376 O.3     
  18 C18            1.9625     1.7955    -2.3280 C.ar    
  19 C19            0.5394     2.7385    -4.0069 C.ar    
  20 C20            1.4260     2.3311    -4.9892 C.ar    
  21 C21            2.5853     1.6599    -4.6394 C.ar    
  22 N22           -1.1378     2.0425     0.0186 N.2     
  23 C23           -1.2164    -0.7493     0.3279 C.3     
  24 O24            1.0819    -1.8787    -0.3312 O.2     
  25 C25            0.8085     2.4704    -2.6778 C.ar    
  26 C26            2.8537     1.3920    -3.3084 C.ar    
  27 C27            6.0845     0.6846     4.8751 C.3     
  28 C28            5.3337    -0.5555     5.3642 C.3     
  29 C29            6.5684    -0.7103     4.4741 C.3     
  30 F30            1.1625     2.5929    -6.2881 F       
  31 F31            3.9847     0.7375    -2.9655 F       
  32 C32            3.5785     5.5858     2.1511 C.3     
  33 H33            1.3581     2.8114     0.5575 H       
  34 H34            2.9183    -0.4925    -1.4462 H       
  35 H35            4.2388     2.2739    -1.3058 H       
  36 H36            3.4343     3.0500     0.0861 H       
  37 H37            2.7352     0.1114     1.5509 H       
  38 H38            3.9056    -0.9403     0.6980 H       
  39 H39           -0.3650     3.2621    -4.2795 H       
  40 H40            3.2773     1.3415    -5.4049 H       
  41 H41           -1.9825     1.5657     0.0200 H       
  42 H42           -2.0230    -0.0493     0.5458 H       
  43 H43           -1.4972    -1.3749    -0.5194 H       
  44 H44           -1.0355    -1.3781     1.1996 H       
  45 H45            0.1162     2.7882    -1.9123 H       
  46 H46            6.6793     1.2334     5.6053 H       
  47 H47            5.4348    -0.8228     6.4161 H       
  48 H48            4.3617    -0.7642     4.9173 H       
  49 H49            6.4088    -1.0209     3.4415 H       
  50 H50            7.4819    -1.0795     4.9403 H       
  51 H51            4.2377     5.5677     1.2832 H       
  52 H52            2.6376     5.0946     1.9029 H       
  53 H53            3.3842     6.6191     2.4384 H       
@<TRIPOS>BOND
   1    1    2 1
   2    1    3 1
   3    1   22 2
   4    2   23 1
   5    2    6 am
   6    3    4 1
   7    3   33 1
   8    4    7 1
   9    4   18 1
  10    4    5 1
  11    5    6 1
  12    5    9 1
  13    5   34 1
  14    6   24 2
  15    7    8 1
  16    7   35 1
  17    7   36 1
  18    8    9 1
  19    8   10 1
  20    9   37 1
  21    9   38 1
  22   10   11 ar
  23   10   15 ar
  24   11   12 ar
  25   12   13 ar
  26   12   17 1
  27   13   14 ar
  28   13   16 1
  29   14   15 ar
  30   14   27 1
  31   17   32 1
  32   18   25 ar
  33   18   26 ar
  34   19   20 ar
  35   19   25 ar
  36   19   39 1
  37   20   21 ar
  38   20   30 1
  39   21   26 ar
  40   21   40 1
  41   22   41 1
  42   23   42 1
  43   23   43 1
  44   23   44 1
  45   25   45 1
  46   26   31 1
  47   27   28 1
  48   27   29 1
  49   27   46 1
  50   28   29 1
  51   28   47 1
  52   28   48 1
  53   29   49 1
  54   29   50 1
  55   32   51 1
  56   32   52 1
  57   32   53 1

#	End of record

