#	Name: ASD01912813
#	Creating user name:	WinNT
#	Creation time:	15. 06. 2019 20:00

#	Modifying user name:	WinNT
#	Modification time:	15. 06. 2019 20:00

#	Program:	/corina/corina34_cracker 3.40 0067  02.08.2006

@<TRIPOS>MOLECULE
ASD01912813
  43   46    0    0    0
SMALL
NO_CHARGES


@<TRIPOS>ATOM
   1 C1            -0.0264     1.3418     0.2538 C.2     
   2 N2             0.0028    -0.0022    -0.0159 N.pl3   
   3 C3            -1.1914    -0.6643    -0.2587 C.2     
   4 C4            -2.3525    -0.0230    -0.2343 C.2     
   5 N5            -2.4358     1.3307     0.0320 N.am    
   6 C6            -1.3127     2.0397     0.2837 C.2     
   7 C7             1.2832     1.7371     0.4530 C.2     
   8 C8             2.0429     0.5802     0.2876 C.2     
   9 N9             1.2234    -0.4069     0.0131 N.2     
  10 O10           -1.3690     3.2330     0.5205 O.2     
  11 C11           -3.6826     1.9657     0.0469 C.ar    
  12 C12            3.5421     0.4808     0.4038 C.3     
  13 O13            4.0823     1.7670     0.7136 O.3     
  14 C14            5.4318     1.8522     0.8535 C.ar    
  15 C15            6.0230     3.0705     1.1542 C.ar    
  16 C16            7.3945     3.1557     1.2961 C.ar    
  17 C17            8.1790     2.0259     1.1380 C.ar    
  18 C18            7.5902     0.8092     0.8379 C.ar    
  19 C19            6.2184     0.7199     0.7015 C.ar    
  20 C20           -4.6034     1.6661     1.0418 C.ar    
  21 C21           -3.9985     2.9009    -0.9305 C.ar    
  22 C22           -5.2294     3.5281    -0.9154 C.ar    
  23 C23           -6.1490     3.2273     0.0710 C.ar    
  24 C24           -5.8371     2.2971     1.0531 C.ar    
  25 F25            9.5202     2.1108     1.2761 F       
  26 O26           -6.7428     2.0021     2.0223 O.3     
  27 C27           -7.9959     2.6868     1.9694 C.3     
  28 H28           -1.1757    -1.7229    -0.4721 H       
  29 H29           -3.2600    -0.5753    -0.4287 H       
  30 H30            1.6409     2.7292     0.6860 H       
  31 H31            3.7993    -0.2218     1.1965 H       
  32 H32            3.9573     0.1303    -0.5411 H       
  33 H33            5.4113     3.9521     1.2769 H       
  34 H34            7.8550     4.1041     1.5301 H       
  35 H35            8.2034    -0.0713     0.7144 H       
  36 H36            5.7593    -0.2293     0.4677 H       
  37 H37           -4.3588     0.9425     1.8052 H       
  38 H38           -3.2813     3.1381    -1.7024 H       
  39 H39           -5.4731     4.2552    -1.6759 H       
  40 H40           -7.1102     3.7198     0.0806 H       
  41 H41           -7.8264     3.7610     2.0442 H       
  42 H42           -8.4932     2.4623     1.0258 H       
  43 H43           -8.6240     2.3596     2.7980 H       
@<TRIPOS>BOND
   1    1    2 1
   2    1    7 2
   3    1    6 1
   4    2    3 1
   5    2    9 1
   6    3    4 2
   7    3   28 1
   8    4    5 1
   9    4   29 1
  10    5    6 am
  11    5   11 1
  12    6   10 2
  13    7    8 1
  14    7   30 1
  15    8    9 2
  16    8   12 1
  17   11   21 ar
  18   11   20 ar
  19   12   13 1
  20   12   31 1
  21   12   32 1
  22   13   14 1
  23   14   15 ar
  24   14   19 ar
  25   15   16 ar
  26   15   33 1
  27   16   17 ar
  28   16   34 1
  29   17   18 ar
  30   17   25 1
  31   18   19 ar
  32   18   35 1
  33   19   36 1
  34   20   24 ar
  35   20   37 1
  36   21   22 ar
  37   21   38 1
  38   22   23 ar
  39   22   39 1
  40   23   24 ar
  41   23   40 1
  42   24   26 1
  43   26   27 1
  44   27   41 1
  45   27   42 1
  46   27   43 1

#	End of record

