#	Name: ASD09080073
#	Creating user name:	WinNT
#	Creation time:	15. 06. 2019 21:20

#	Modifying user name:	WinNT
#	Modification time:	15. 06. 2019 21:20

#	Program:	/corina/corina34_cracker 3.40 0067  02.08.2006

@<TRIPOS>MOLECULE
ASD09080073
  52   53    0    0    0
SMALL
NO_CHARGES


@<TRIPOS>ATOM
   1 C1             0.9409     1.3254     1.7663 C.ar    
   2 C2             0.8164    -0.0218     1.4868 C.ar    
   3 C3            -0.4455    -0.5734     1.2761 C.ar    
   4 C4            -1.5762     0.2374     1.3484 C.ar    
   5 C5            -1.4413     1.5835     1.6284 C.ar    
   6 C6            -0.1859     2.1258     1.8423 C.ar    
   7 Cl7            2.5125     2.0141     2.0297 Cl      
   8 Cl8           -2.8491     2.5952     1.7183 Cl      
   9 C9            -0.5848    -2.0198     0.9751 C.ar    
  10 C10           -1.8467    -2.5718     0.7643 C.ar    
  11 C11            0.5462    -2.8298     0.8966 C.ar    
  12 C12            0.4109    -4.1744     0.6164 C.ar    
  13 C13           -0.8446    -4.7183     0.4137 C.ar    
  14 C14           -1.9704    -3.9177     0.4847 C.ar    
  15 C15           -0.9861    -6.1871     0.1080 C.3     
  16 C16           -1.1390    -6.9676     1.4151 C.3     
  17 N17           -2.3933    -6.5851     2.0684 N.am    
  18 C18           -1.1574    -8.4676     1.1143 C.3     
  19 C19           -1.3019    -9.2483     2.4221 C.3     
  20 O20           -2.2599    -8.7678     0.2561 O.3     
  21 O21           -2.4612    -8.7935     3.1229 O.3     
  22 C22           -2.3672    -5.9089     3.2339 C.2     
  23 O23           -1.3095    -5.6968     3.7883 O.2     
  24 C24           -3.6521    -5.4164     3.8483 C.3     
  25 Br25          -3.2569    -4.4781     5.5301 Br      
  26 C26           -1.4434   -10.7174     2.1172 C.2     
  27 O27           -2.4717   -11.2933     2.3832 O.2     
  28 O28           -0.4270   -11.3861     1.5502 O.3     
  29 C29            0.6242   -13.3863     0.6421 C.3     
  30 C30           -0.6337   -12.7986     1.2850 C.3     
  31 H31            1.6958    -0.6462     1.4315 H       
  32 H32           -2.5564    -0.1855     1.1854 H       
  33 H33           -0.0844     3.1785     2.0609 H       
  34 H34           -2.7263    -1.9477     0.8199 H       
  35 H35            1.5271    -2.4061     1.0545 H       
  36 H36            1.2869    -4.8031     0.5550 H       
  37 H37           -2.9484    -4.3475     0.3259 H       
  38 H38           -1.8664    -6.3455    -0.5148 H       
  39 H39           -0.0991    -6.5352    -0.4213 H       
  40 H40           -0.3017    -6.7395     2.0746 H       
  41 H41           -3.2426    -6.8185     1.6620 H       
  42 H42           -0.2267    -8.7511     0.6228 H       
  43 H43           -0.4181    -9.0890     3.0399 H       
  44 H44           -3.1160    -8.4772     0.5993 H       
  45 H45           -3.2866    -8.9047     2.6315 H       
  46 H46           -4.1461    -4.7325     3.1581 H       
  47 H47           -4.3066    -6.2643     4.0504 H       
  48 H48            0.4690   -14.4466     0.4431 H       
  49 H49            0.8302   -12.8672    -0.2939 H       
  50 H50            1.4695   -13.2636     1.3193 H       
  51 H51           -0.8398   -13.3177     2.2211 H       
  52 H52           -1.4790   -12.9213     0.6079 H       
@<TRIPOS>BOND
   1    1    2 ar
   2    1    7 1
   3    1    6 ar
   4    2    3 ar
   5    2   31 1
   6    3    4 ar
   7    3    9 1
   8    4    5 ar
   9    4   32 1
  10    5    6 ar
  11    5    8 1
  12    6   33 1
  13    9   10 ar
  14    9   11 ar
  15   10   14 ar
  16   10   34 1
  17   11   12 ar
  18   11   35 1
  19   12   13 ar
  20   12   36 1
  21   13   14 ar
  22   13   15 1
  23   14   37 1
  24   15   16 1
  25   15   38 1
  26   15   39 1
  27   16   17 1
  28   16   18 1
  29   16   40 1
  30   17   22 am
  31   17   41 1
  32   18   19 1
  33   18   20 1
  34   18   42 1
  35   19   21 1
  36   19   26 1
  37   19   43 1
  38   20   44 1
  39   21   45 1
  40   22   23 2
  41   22   24 1
  42   24   25 1
  43   24   46 1
  44   24   47 1
  45   26   27 2
  46   26   28 1
  47   28   30 1
  48   29   30 1
  49   29   48 1
  50   29   49 1
  51   29   50 1
  52   30   51 1
  53   30   52 1

#	End of record

