#	Name: ASD01814300
#	Creating user name:	WinNT
#	Creation time:	15. 06. 2019 19:32

#	Modifying user name:	WinNT
#	Modification time:	15. 06. 2019 19:32

#	Program:	/corina/corina34_cracker 3.40 0067  02.08.2006

@<TRIPOS>MOLECULE
ASD01814300
  50   54    0    0    0
SMALL
NO_CHARGES


@<TRIPOS>ATOM
   1 C1            -0.0168     1.3869     0.0097 C.ar    
   2 C2             0.0021    -0.0041     0.0020 C.ar    
   3 C3             1.1801    -0.6897    -0.0129 C.ar    
   4 C4             2.3948     0.0129    -0.0207 C.ar    
   5 C5             2.3717     1.4290    -0.0129 C.ar    
   6 C6             1.1455     2.1015     0.0024 C.ar    
   7 C7             3.6293    -0.6694    -0.0365 C.ar    
   8 C8             4.8031     0.0063    -0.0446 C.ar    
   9 C9             4.8359     1.4095    -0.0374 C.ar    
  10 C10            3.6406     2.1511    -0.0211 C.ar    
  11 C11            6.1026     2.1526    -0.0470 C.2     
  12 N12            6.0328     3.5041    -0.0399 N.am    
  13 C13            4.8302     4.1313    -0.0241 C.2     
  14 N14            3.6961     3.4935    -0.0158 N.2     
  15 C15            3.6424    -2.1763    -0.0442 C.3     
  16 C16            3.5087    -2.6726    -1.4608 C.ar    
  17 C17            4.6390    -2.8892    -2.2267 C.ar    
  18 C18            4.5170    -3.3444    -3.5260 C.ar    
  19 C19            3.2633    -3.5833    -4.0601 C.ar    
  20 C20            2.1324    -3.3663    -3.2932 C.ar    
  21 C21            2.2560    -2.9165    -1.9921 C.ar    
  22 O22            7.1745     1.5748    -0.0604 O.2     
  23 Cl23           3.1092    -4.1545    -5.6922 Cl      
  24 C24            7.2655     4.2957    -0.0490 C.3     
  25 C25            7.3314     5.1828     1.2066 C.3     
  26 C26            7.3766     6.6434     0.7122 C.3     
  27 C27            6.7376     6.5873    -0.6976 C.3     
  28 C28            7.2730     5.2481    -1.2625 C.3     
  29 O29            8.5104     4.8831     1.9564 O.3     
  30 H30           -0.9630     1.9076     0.0169 H       
  31 H31           -0.9305    -0.5488     0.0083 H       
  32 H32            1.1786    -1.7697    -0.0183 H       
  33 H33            1.1188     3.1811     0.0081 H       
  34 H34            5.7317    -0.5451    -0.0563 H       
  35 H35            4.8132     5.2111    -0.0182 H       
  36 H36            4.5813    -2.5336     0.3789 H       
  37 H37            2.8098    -2.5499     0.5518 H       
  38 H38            5.6176    -2.7024    -1.8097 H       
  39 H39            5.4001    -3.5132    -4.1243 H       
  40 H40            1.1535    -3.5526    -3.7096 H       
  41 H41            1.3733    -2.7471    -1.3933 H       
  42 H42            8.1328     3.6365    -0.0863 H       
  43 H43            6.4462     5.0244     1.8226 H       
  44 H44            6.7930     7.2871     1.3703 H       
  45 H45            8.4070     6.9935     0.6503 H       
  46 H46            5.6499     6.5699    -0.6282 H       
  47 H47            7.0735     7.4257    -1.3077 H       
  48 H48            8.2866     5.3728    -1.6433 H       
  49 H49            6.6137     4.8736    -2.0455 H       
  50 H50            8.6094     5.4103     2.7610 H       
@<TRIPOS>BOND
   1    1    2 ar
   2    1    6 ar
   3    1   30 1
   4    2    3 ar
   5    2   31 1
   6    3    4 ar
   7    3   32 1
   8    4    5 ar
   9    4    7 ar
  10    5    6 ar
  11    5   10 ar
  12    6   33 1
  13    7    8 ar
  14    7   15 1
  15    8    9 ar
  16    8   34 1
  17    9   10 ar
  18    9   11 1
  19   10   14 1
  20   11   12 am
  21   11   22 2
  22   12   13 1
  23   12   24 1
  24   13   14 2
  25   13   35 1
  26   15   16 1
  27   15   36 1
  28   15   37 1
  29   16   17 ar
  30   16   21 ar
  31   17   18 ar
  32   17   38 1
  33   18   19 ar
  34   18   39 1
  35   19   20 ar
  36   19   23 1
  37   20   21 ar
  38   20   40 1
  39   21   41 1
  40   24   25 1
  41   24   28 1
  42   24   42 1
  43   25   26 1
  44   25   29 1
  45   25   43 1
  46   26   27 1
  47   26   44 1
  48   26   45 1
  49   27   28 1
  50   27   46 1
  51   27   47 1
  52   28   48 1
  53   28   49 1
  54   29   50 1

#	End of record

