#	Name: ASD01001036
#	Creating user name:	WinNT
#	Creation time:	15. 06. 2019 18:55

#	Modifying user name:	WinNT
#	Modification time:	15. 06. 2019 18:55

#	Program:	/corina/corina34_cracker 3.40 0067  02.08.2006

@<TRIPOS>MOLECULE
ASD01001036
  44   46    0    0    0
SMALL
NO_CHARGES


@<TRIPOS>ATOM
   1 C1             0.2184     2.4928     0.5046 C.ar    
   2 C2            -0.1669     1.2490     0.9684 C.ar    
   3 C3             1.5407     2.7307     0.1798 C.ar    
   4 C4             0.7722     0.2414     1.1076 C.ar    
   5 C5             2.4795     1.7251     0.3184 C.ar    
   6 C6             2.0967     0.4810     0.7819 C.ar    
   7 C7             3.9207     1.9861    -0.0361 C.3     
   8 C8             4.7101     0.7094     0.0978 C.ar    
   9 C9             4.0066     2.4832    -1.4562 C.ar    
  10 S10            4.6020     3.2386     1.0853 S.3     
  11 C11            5.7481     0.6307     1.0073 C.ar    
  12 C12            4.3925    -0.3849    -0.6849 C.ar    
  13 C13            3.0461     2.1112    -2.3780 C.ar    
  14 C14            5.0428     3.3159    -1.8355 C.ar    
  15 C15            4.2216     2.5669     2.7268 C.3     
  16 C16            6.4686    -0.5422     1.1341 C.ar    
  17 C17            5.1166    -1.5560    -0.5622 C.ar    
  18 C18            3.1217     2.5718    -3.6792 C.ar    
  19 C19            5.1216     3.7719    -3.1381 C.ar    
  20 C20            4.8563     3.4533     3.8003 C.3     
  21 C21            6.1507    -1.6367     0.3517 C.ar    
  22 C22            4.1577     3.4048    -4.0584 C.ar    
  23 N23            4.5483     2.9093     5.1296 N.3     
  24 H24            5.9369     3.4776     3.6591 H       
  25 F25            0.3968    -0.9745     1.5613 F       
  26 H26           -0.5148     3.2777     0.3917 H       
  27 H27           -1.2000     1.0635     1.2224 H       
  28 H28            1.8407     3.7027    -0.1829 H       
  29 H29            2.8302    -0.3043     0.8904 H       
  30 H30            5.9965     1.4857     1.6185 H       
  31 H31            3.5784    -0.3250    -1.3921 H       
  32 H32            2.2367     1.4604    -2.0818 H       
  33 H33            5.7906     3.6104    -1.1141 H       
  34 H34            3.1410     2.5426     2.8680 H       
  35 H35            4.6213     1.5560     2.8073 H       
  36 H36            7.2800    -0.6035     1.8441 H       
  37 H37            4.8683    -2.4110    -1.1734 H       
  38 H38            2.3717     2.2805    -4.3996 H       
  39 H39            5.9310     4.4227    -3.4343 H       
  40 H40            4.4566     4.4641     3.7198 H       
  41 H41            6.7138    -2.5529     0.4505 H       
  42 H42            4.2192     3.7610    -5.0761 H       
  43 H43            4.8517     1.9501     5.2070 H       
  44 H44            4.9568     3.4775     5.8564 H       
@<TRIPOS>BOND
   1    1    2 ar
   2    1    3 ar
   3    1   26 1
   4    2    4 ar
   5    2   27 1
   6    3    5 ar
   7    3   28 1
   8    4    6 ar
   9    4   25 1
  10    5    6 ar
  11    5    7 1
  12    6   29 1
  13    7   10 1
  14    7    8 1
  15    7    9 1
  16    8   12 ar
  17    8   11 ar
  18    9   14 ar
  19    9   13 ar
  20   10   15 1
  21   11   16 ar
  22   11   30 1
  23   12   17 ar
  24   12   31 1
  25   13   18 ar
  26   13   32 1
  27   14   19 ar
  28   14   33 1
  29   15   20 1
  30   15   34 1
  31   15   35 1
  32   16   21 ar
  33   16   36 1
  34   17   21 ar
  35   17   37 1
  36   18   22 ar
  37   18   38 1
  38   19   22 ar
  39   19   39 1
  40   20   23 1
  41   20   24 1
  42   20   40 1
  43   21   41 1
  44   22   42 1
  45   23   43 1
  46   23   44 1

#	End of record

