#	Name: ASD01913762
#	Creating user name:	WinNT
#	Creation time:	15. 06. 2019 20:02

#	Modifying user name:	WinNT
#	Modification time:	15. 06. 2019 20:02

#	Program:	/corina/corina34_cracker 3.40 0067  02.08.2006

@<TRIPOS>MOLECULE
ASD01913762
  54   56    0    0    0
SMALL
NO_CHARGES


@<TRIPOS>ATOM
   1 O1            -0.0163     1.3508     0.0095 O.3     
   2 C2             0.0021    -0.0041     0.0020 C.ar    
   3 C3            -1.1990    -0.7061     0.0097 C.ar    
   4 C4            -1.1741    -2.0858     0.0021 C.ar    
   5 C5             0.0719    -2.7294    -0.0133 C.ar    
   6 C6             1.2332    -1.9554    -0.0202 C.ar    
   7 N7             1.1631    -0.6409    -0.0179 N.ar    
   8 C8             0.1537    -4.2032    -0.0215 C.2     
   9 N9             1.3564    -4.8113    -0.0363 N.am    
  10 O10           -0.8638    -4.8687    -0.0150 O.2     
  11 C11            1.2480     2.0168     0.0010 C.3     
  12 C12            1.0303     3.5080     0.0111 C.ar    
  13 C13            0.9419     4.1851     1.2128 C.ar    
  14 C14            0.7418     5.5532     1.2236 C.ar    
  15 C15            0.6298     6.2450     0.0328 C.ar    
  16 C16            0.7186     5.5677    -1.1718 C.ar    
  17 C17            0.9247     4.1988    -1.1815 C.ar    
  18 C18            1.4377    -6.2740    -0.0444 C.3     
  19 C19           -2.5128     0.0320     0.0267 C.3     
  20 C20            2.7653    -6.7076    -0.6692 C.3     
  21 F21            0.6093     6.2431    -2.3368 F       
  22 F22           -3.5654    -0.8895     0.0317 F       
  23 F23           -2.5852     0.8289     1.1743 F       
  24 F24           -2.6074     0.8419    -1.1101 F       
  25 C25            1.3544    -6.7974     1.3909 C.3     
  26 C26            2.8501    -8.2352    -0.6777 C.3     
  27 C27            4.1777    -8.6688    -1.3024 C.3     
  28 C28            4.2610    -8.1454    -2.7377 C.3     
  29 C29            4.1762    -6.6178    -2.7292 C.3     
  30 C30            2.8486    -6.1842    -2.1044 C.3     
  31 H31           -2.0913    -2.6559     0.0081 H       
  32 H32            2.1986    -2.4396    -0.0317 H       
  33 H33            2.1682    -4.2804    -0.0415 H       
  34 H34            1.8174     1.7268     0.8840 H       
  35 H35            1.8004     1.7363    -0.8958 H       
  36 H36            1.0289     3.6451     2.1441 H       
  37 H37            0.6725     6.0812     2.1632 H       
  38 H38            0.4728     7.3135     0.0415 H       
  39 H39            0.9941     3.6695    -2.1203 H       
  40 H40            0.6116    -6.6806    -0.6279 H       
  41 H41            3.5913    -6.3011    -0.0857 H       
  42 H42            0.4086    -6.4886     1.8360 H       
  43 H43            1.4148    -7.8858     1.3848 H       
  44 H44            2.1804    -6.3909     1.9744 H       
  45 H45            2.7908    -8.6081     0.3448 H       
  46 H46            2.0240    -8.6418    -1.2612 H       
  47 H47            5.0038    -8.2623    -0.7189 H       
  48 H48            4.2382    -9.7571    -1.3085 H       
  49 H49            5.2068    -8.4543    -3.1828 H       
  50 H50            3.4349    -8.5519    -3.3212 H       
  51 H51            5.0022    -6.2113    -2.1457 H       
  52 H52            4.2355    -6.2449    -3.7517 H       
  53 H53            2.0225    -6.5907    -2.6879 H       
  54 H54            2.7881    -5.0959    -2.0984 H       
@<TRIPOS>BOND
   1    1    2 1
   2    1   11 1
   3    2    3 ar
   4    2    7 ar
   5    3    4 ar
   6    3   19 1
   7    4    5 ar
   8    4   31 1
   9    5    6 ar
  10    5    8 1
  11    6    7 ar
  12    6   32 1
  13    8    9 am
  14    8   10 2
  15    9   18 1
  16    9   33 1
  17   11   12 1
  18   11   34 1
  19   11   35 1
  20   12   13 ar
  21   12   17 ar
  22   13   14 ar
  23   13   36 1
  24   14   15 ar
  25   14   37 1
  26   15   16 ar
  27   15   38 1
  28   16   17 ar
  29   16   21 1
  30   17   39 1
  31   18   20 1
  32   18   25 1
  33   18   40 1
  34   19   22 1
  35   19   23 1
  36   19   24 1
  37   20   26 1
  38   20   30 1
  39   20   41 1
  40   25   42 1
  41   25   43 1
  42   25   44 1
  43   26   27 1
  44   26   45 1
  45   26   46 1
  46   27   28 1
  47   27   47 1
  48   27   48 1
  49   28   29 1
  50   28   49 1
  51   28   50 1
  52   29   30 1
  53   29   51 1
  54   29   52 1
  55   30   53 1
  56   30   54 1

#	End of record

