#	Name: ASD02560242
#	Creating user name:	WinNT
#	Creation time:	15. 06. 2019 20:24

#	Modifying user name:	WinNT
#	Modification time:	15. 06. 2019 20:24

#	Program:	/corina/corina34_cracker 3.40 0067  02.08.2006

@<TRIPOS>MOLECULE
ASD02560242
  33   35    0    0    0
SMALL
NO_CHARGES


@<TRIPOS>ATOM
   1 C1             0.0125     1.3159     0.2676 C.2     
   2 N2             0.0195    -0.0016     0.1755 N.2     
   3 C3             1.1783    -0.5767     0.0829 C.2     
   4 S4             2.4207     0.5974     0.1085 S.3     
   5 C5             1.2211     1.8795     0.2522 C.2     
   6 C6             1.5101     3.3558     0.3411 C.3     
   7 N7             1.3802    -1.9448    -0.0211 N.pl3   
   8 C8             0.2970    -2.8217     0.0900 C.ar    
   9 C9             0.3077    -4.0309    -0.5938 C.ar    
  10 C10           -0.7644    -4.8956    -0.4820 C.ar    
  11 C11           -1.8488    -4.5568     0.3105 C.ar    
  12 C12           -1.8611    -3.3530     0.9921 C.ar    
  13 C13           -0.7892    -2.4879     0.8887 C.ar    
  14 C14            1.6708     3.7501     1.7867 C.ar    
  15 C15            2.9189     3.7054     2.3815 C.ar    
  16 C16            3.0658     4.0675     3.7087 C.ar    
  17 C17            1.9657     4.4739     4.4403 C.ar    
  18 C18            0.7183     4.5183     3.8467 C.ar    
  19 C19            0.5712     4.1623     2.5178 C.ar    
  20 Cl20          -0.9956     4.2182     1.7723 Cl      
  21 Cl21           4.3005     3.1945     1.4629 Cl      
  22 Cl22          -3.1949    -5.6443     0.4482 Cl      
  23 Cl23          -0.7525    -6.4070    -1.3359 Cl      
  24 H24           -0.8986     1.8907     0.3447 H       
  25 H25            2.4291     3.5794    -0.2008 H       
  26 H26            0.6840     3.9149    -0.0984 H       
  27 H27            2.2729    -2.2933    -0.1710 H       
  28 H28            1.1529    -4.2947    -1.2122 H       
  29 H29           -2.7080    -3.0911     1.6091 H       
  30 H30           -0.7996    -1.5485     1.4215 H       
  31 H31            4.0401     4.0323     4.1733 H       
  32 H32            2.0809     4.7564     5.4763 H       
  33 H33           -0.1410     4.8352     4.4190 H       
@<TRIPOS>BOND
   1    1    2 1
   2    1    5 2
   3    1   24 1
   4    2    3 2
   5    3    4 1
   6    3    7 1
   7    4    5 1
   8    5    6 1
   9    6   14 1
  10    6   25 1
  11    6   26 1
  12    7    8 1
  13    7   27 1
  14    8    9 ar
  15    8   13 ar
  16    9   10 ar
  17    9   28 1
  18   10   11 ar
  19   10   23 1
  20   11   12 ar
  21   11   22 1
  22   12   13 ar
  23   12   29 1
  24   13   30 1
  25   14   15 ar
  26   14   19 ar
  27   15   16 ar
  28   15   21 1
  29   16   17 ar
  30   16   31 1
  31   17   18 ar
  32   17   32 1
  33   18   19 ar
  34   18   33 1
  35   19   20 1

#	End of record

