#	Name: ASD03700006
#	Creating user name:	WinNT
#	Creation time:	15. 06. 2019 20:43

#	Modifying user name:	WinNT
#	Modification time:	15. 06. 2019 20:43

#	Program:	/corina/corina34_cracker 3.40 0067  02.08.2006

@<TRIPOS>MOLECULE
ASD03700006
  39   41    0    0    0
SMALL
NO_CHARGES


@<TRIPOS>ATOM
   1 C1            -0.0167     1.3793     0.0096 C.ar    
   2 C2             0.0021    -0.0041     0.0020 C.ar    
   3 C3             1.2043    -0.6806    -0.0126 C.ar    
   4 C4             2.4034     0.0337    -0.0202 C.ar    
   5 C5             2.3774     1.4291    -0.0129 C.ar    
   6 C6             1.1683     2.0934     0.0021 C.ar    
   7 C7             3.6953    -0.6847    -0.0354 C.2     
   8 N8             4.8826    -0.1260    -0.0436 N.2     
   9 C9             5.8119    -1.0935    -0.0559 C.2     
  10 C10            5.1737    -2.2780    -0.0551 C.2     
  11 O11            3.8510    -2.0199    -0.0372 O.3     
  12 C12            5.8182    -3.6402    -0.0669 C.3     
  13 C13            7.3050    -0.8899    -0.0683 C.3     
  14 O14            7.7890    -0.8316     1.2750 O.3     
  15 C15            9.1255    -0.6504     1.4420 C.ar    
  16 C16            9.6634    -0.5844     2.7188 C.ar    
  17 C17           11.0225    -0.4001     2.8859 C.ar    
  18 C18           11.8460    -0.2814     1.7819 C.ar    
  19 C19           11.3121    -0.3463     0.5079 C.ar    
  20 C20            9.9549    -0.5367     0.3355 C.ar    
  21 C21           11.6076    -0.3278     4.2728 C.3     
  22 O22           11.9745    -1.6399     4.7040 O.3     
  23 H23           -0.9606     1.9042     0.0169 H       
  24 H24           -0.9265    -0.5556     0.0079 H       
  25 H25            1.2177    -1.7605    -0.0178 H       
  26 H26            3.3017     1.9877    -0.0184 H       
  27 H27            1.1468     3.1732     0.0081 H       
  28 H28            5.9830    -3.9730     0.9579 H       
  29 H29            5.1644    -4.3470    -0.5778 H       
  30 H30            6.7733    -3.5857    -0.5893 H       
  31 H31            7.7806    -1.7202    -0.5901 H       
  32 H32            7.5402     0.0434    -0.5800 H       
  33 H33            9.0204    -0.6768     3.5816 H       
  34 H34           12.9081    -0.1373     1.9146 H       
  35 H35           11.9575    -0.2530    -0.3530 H       
  36 H36            9.5384    -0.5878    -0.6596 H       
  37 H37           12.4905     0.3112     4.2618 H       
  38 H38           10.8679     0.0862     4.9581 H       
  39 H39           12.3590    -1.6693     5.5907 H       
@<TRIPOS>BOND
   1    1    2 ar
   2    1    6 ar
   3    1   23 1
   4    2    3 ar
   5    2   24 1
   6    3    4 ar
   7    3   25 1
   8    4    5 ar
   9    4    7 1
  10    5    6 ar
  11    5   26 1
  12    6   27 1
  13    7    8 2
  14    7   11 1
  15    8    9 1
  16    9   10 2
  17    9   13 1
  18   10   11 1
  19   10   12 1
  20   12   28 1
  21   12   29 1
  22   12   30 1
  23   13   14 1
  24   13   31 1
  25   13   32 1
  26   14   15 1
  27   15   16 ar
  28   15   20 ar
  29   16   17 ar
  30   16   33 1
  31   17   18 ar
  32   17   21 1
  33   18   19 ar
  34   18   34 1
  35   19   20 ar
  36   19   35 1
  37   20   36 1
  38   21   22 1
  39   21   37 1
  40   21   38 1
  41   22   39 1

#	End of record

