#	Name: ASD01150035
#	Creating user name:	WinNT
#	Creation time:	15. 06. 2019 19:03

#	Modifying user name:	WinNT
#	Modification time:	15. 06. 2019 19:03

#	Program:	/corina/corina34_cracker 3.40 0067  02.08.2006

@<TRIPOS>MOLECULE
ASD01150035
  38   40    0    0    0
SMALL
NO_CHARGES


@<TRIPOS>ATOM
   1 C1            -0.0163     1.3112     0.0274 C.ar    
   2 N2             0.0007    -0.0068     0.0355 N.ar    
   3 C3            -1.1237    -0.7060     0.0481 C.ar    
   4 C4            -2.3408    -0.0290     0.0528 C.ar    
   5 C5            -2.3166     1.3780     0.0439 C.ar    
   6 N6            -1.1412     1.9976     0.0365 N.ar    
   7 C7            -3.6256    -0.7696     0.0664 C.ar    
   8 C8            -3.8512    -1.7958    -0.8495 C.ar    
   9 C9            -5.0487    -2.4816    -0.8323 C.ar    
  10 C10           -6.0241    -2.1523     0.0916 C.ar    
  11 C11           -5.8057    -1.1348     1.0029 C.ar    
  12 C12           -4.6098    -0.4461     0.9987 C.ar    
  13 C13           -7.3298    -2.9045     0.1050 C.3     
  14 F14           -7.2235    -4.0081     0.9583 F       
  15 F15           -8.3494    -2.0609     0.5586 F       
  16 F16           -7.6287    -3.3431    -1.1895 F       
  17 C17            1.2931     2.0572     0.0137 C.3     
  18 N18           -3.4959     2.1034     0.0476 N.pl3   
  19 C19           -3.4593     3.4962     0.1602 C.ar    
  20 C20           -4.3999     4.2732    -0.5040 C.ar    
  21 C21           -4.3613     5.6490    -0.3902 C.ar    
  22 C22           -3.3873     6.2532     0.3835 C.ar    
  23 C23           -2.4491     5.4827     1.0457 C.ar    
  24 C24           -2.4858     4.1061     0.9412 C.ar    
  25 H25           -1.0974    -1.7857     0.0542 H       
  26 H26           -3.0904    -2.0534    -1.5716 H       
  27 H27           -5.2247    -3.2766    -1.5418 H       
  28 H28           -6.5709    -0.8818     1.7218 H       
  29 H29           -4.4402     0.3479     1.7110 H       
  30 H30            1.6016     2.2306    -1.0172 H       
  31 H31            1.1717     3.0135     0.5225 H       
  32 H32            2.0529     1.4669     0.5259 H       
  33 H33           -4.3474     1.6451    -0.0280 H       
  34 H34           -5.1604     3.8020    -1.1090 H       
  35 H35           -5.0923     6.2537    -0.9063 H       
  36 H36           -3.3591     7.3294     0.4706 H       
  37 H37           -1.6894     5.9578     1.6486 H       
  38 H38           -1.7529     3.5049     1.4586 H       
@<TRIPOS>BOND
   1    1    2 ar
   2    1   17 1
   3    1    6 ar
   4    2    3 ar
   5    3    4 ar
   6    3   25 1
   7    4    5 ar
   8    4    7 1
   9    5    6 ar
  10    5   18 1
  11    7    8 ar
  12    7   12 ar
  13    8    9 ar
  14    8   26 1
  15    9   10 ar
  16    9   27 1
  17   10   11 ar
  18   10   13 1
  19   11   12 ar
  20   11   28 1
  21   12   29 1
  22   13   14 1
  23   13   15 1
  24   13   16 1
  25   17   30 1
  26   17   31 1
  27   17   32 1
  28   18   19 1
  29   18   33 1
  30   19   20 ar
  31   19   24 ar
  32   20   21 ar
  33   20   34 1
  34   21   22 ar
  35   21   35 1
  36   22   23 ar
  37   22   36 1
  38   23   24 ar
  39   23   37 1
  40   24   38 1

#	End of record

