#	Name: ASD01917049
#	Creating user name:	WinNT
#	Creation time:	15. 06. 2019 20:08

#	Modifying user name:	WinNT
#	Modification time:	15. 06. 2019 20:08

#	Program:	/corina/corina34_cracker 3.40 0067  02.08.2006

@<TRIPOS>MOLECULE
ASD01917049
  46   48    0    0    0
SMALL
NO_CHARGES


@<TRIPOS>ATOM
   1 C1            -0.0187     1.5258     0.0104 C.3     
   2 C2             0.0021    -0.0041     0.0020 C.3     
   3 C3            -1.4117    -0.5257     0.0127 C.2     
   4 N4            -2.3217    -0.2892    -0.8949 N.2     
   5 C5            -3.4623    -0.9104    -0.5660 C.2     
   6 N6            -3.2808    -1.5531     0.5668 N.2     
   7 N7            -1.9516    -1.3192     0.9552 N.pl3   
   8 C8            -1.2863    -1.8316     2.1556 C.3     
   9 C9            -0.6453    -3.1600     1.8464 C.2     
  10 O10            0.0253    -3.8205     2.8033 O.3     
  11 O11           -0.7349    -3.6304     0.7371 O.2     
  12 C12            0.6169    -5.0941     2.4343 C.3     
  13 C13           -4.7219    -0.8782    -1.3499 C.ar    
  14 C14           -4.7860    -0.1564    -2.5398 C.ar    
  15 C15           -5.8425    -1.5745    -0.9007 C.ar    
  16 C16           -7.0115    -1.5417    -1.6325 C.ar    
  17 C17           -7.0726    -0.8179    -2.8126 C.ar    
  18 C18           -5.9594    -0.1290    -3.2656 C.ar    
  19 F19           -8.2192    -0.7889    -3.5264 F       
  20 C20            0.7182    -0.4975    -1.2568 C.3     
  21 C21            2.1536     0.0321    -1.2676 C.3     
  22 C22            2.1328     1.5619    -1.2592 C.3     
  23 C23            1.4167     2.0553    -0.0004 C.3     
  24 C24           -8.2237    -2.2947    -1.1481 C.3     
  25 H25           -0.5459     1.8868    -0.8726 H       
  26 H26           -0.5289     1.8773     0.9072 H       
  27 H27            0.5293    -0.3651     0.8851 H       
  28 H28           -0.5210    -1.1249     2.4766 H       
  29 H29           -2.0201    -1.9588     2.9515 H       
  30 H30            1.3331    -4.9417     1.6268 H       
  31 H31            1.1279    -5.5211     3.2973 H       
  32 H32           -0.1660    -5.7757     2.1017 H       
  33 H33           -3.9187     0.3813    -2.8935 H       
  34 H34           -5.7957    -2.1391     0.0187 H       
  35 H35           -6.0113     0.4342    -4.1856 H       
  36 H36            0.7330    -1.5874    -1.2628 H       
  37 H37            0.1910    -0.1364    -2.1398 H       
  38 H38            2.6808    -0.3290    -0.3846 H       
  39 H39            2.6638    -0.3194    -2.1644 H       
  40 H40            3.1554     1.9392    -1.2670 H       
  41 H41            1.6057     1.9230    -2.1423 H       
  42 H42            1.4019     3.1452     0.0056 H       
  43 H43            1.9439     1.6943     0.8826 H       
  44 H44           -8.8213    -1.6471    -0.5066 H       
  45 H45           -8.8212    -2.6102    -2.0034 H       
  46 H46           -7.9055    -3.1714    -0.5840 H       
@<TRIPOS>BOND
   1    1    2 1
   2    1   23 1
   3    1   25 1
   4    1   26 1
   5    2    3 1
   6    2   20 1
   7    2   27 1
   8    3    4 2
   9    3    7 1
  10    4    5 1
  11    5    6 2
  12    5   13 1
  13    6    7 1
  14    7    8 1
  15    8    9 1
  16    8   28 1
  17    8   29 1
  18    9   10 1
  19    9   11 2
  20   10   12 1
  21   12   30 1
  22   12   31 1
  23   12   32 1
  24   13   14 ar
  25   13   15 ar
  26   14   18 ar
  27   14   33 1
  28   15   16 ar
  29   15   34 1
  30   16   17 ar
  31   16   24 1
  32   17   18 ar
  33   17   19 1
  34   18   35 1
  35   20   21 1
  36   20   36 1
  37   20   37 1
  38   21   22 1
  39   21   38 1
  40   21   39 1
  41   22   23 1
  42   22   40 1
  43   22   41 1
  44   23   42 1
  45   23   43 1
  46   24   44 1
  47   24   45 1
  48   24   46 1

#	End of record

