#	Name: ASD05143277
#	Creating user name:	WinNT
#	Creation time:	15. 06. 2019 20:57

#	Modifying user name:	WinNT
#	Modification time:	15. 06. 2019 20:57

#	Program:	/corina/corina34_cracker 3.40 0067  02.08.2006

@<TRIPOS>MOLECULE
ASD05143277
  49   51    0    0    0
SMALL
NO_CHARGES


@<TRIPOS>ATOM
   1 C1            -0.2691     1.4653     0.1074 C.2     
   2 N2            -0.0183     0.2159    -0.2298 N.2     
   3 S3            -1.5323    -0.5508    -0.3147 S.3     
   4 C4            -2.4292     0.8568     0.1102 C.2     
   5 N5            -1.5316     1.8002     0.2911 N.2     
   6 N6            -3.8013     0.9694     0.2390 N.pl3   
   7 C7            -4.3637     2.1557     0.7253 C.ar    
   8 C8            -5.6635     2.5013     0.3792 C.ar    
   9 C9            -6.2177     3.6713     0.8597 C.ar    
  10 C10           -5.4763     4.5015     1.6875 C.ar    
  11 C11           -4.1778     4.1573     2.0334 C.ar    
  12 C12           -3.6242     2.9846     1.5588 C.ar    
  13 C13            1.2103    -0.3481    -0.4641 C.ar    
  14 C14            2.0499     0.1825    -1.4430 C.ar    
  15 C15            1.6298    -1.4563     0.2825 C.ar    
  16 C16            2.8710    -2.0186     0.0389 C.ar    
  17 C17            3.6932    -1.4874    -0.9385 C.ar    
  18 C18            3.2848    -0.3893    -1.6742 C.ar    
  19 C19            0.8229     2.4515     0.2791 C.ar    
  20 C20            0.6089     3.7942    -0.0317 C.ar    
  21 C21            2.0672     2.0421     0.7575 C.ar    
  22 C22            3.0805     2.9653     0.9152 C.ar    
  23 C23            2.8639     4.2948     0.5999 C.ar    
  24 C24            1.6299     4.7081     0.1303 C.ar    
  25 O25           -6.0226     5.6537     2.1600 O.3     
  26 O26            0.8217    -1.9773     1.2429 O.3     
  27 C27            1.3162    -3.1075     1.9640 C.3     
  28 C28           -5.2026     6.4608     3.0074 C.3     
  29 H29           -4.3741     0.2265    -0.0077 H       
  30 H30           -6.2406     1.8553    -0.2659 H       
  31 H31           -7.2284     3.9402     0.5906 H       
  32 H32           -3.6012     4.8044     2.6777 H       
  33 H33           -2.6134     2.7165     1.8285 H       
  34 H34            1.7343     1.0395    -2.0196 H       
  35 H35            3.1980    -2.8729     0.6129 H       
  36 H36            4.6607    -1.9294    -1.1250 H       
  37 H37            3.9327     0.0191    -2.4357 H       
  38 H38           -0.3539     4.1179    -0.3986 H       
  39 H39            2.2374     1.0045     1.0043 H       
  40 H40            4.0444     2.6495     1.2860 H       
  41 H41            3.6599     5.0139     0.7254 H       
  42 H42            1.4668     5.7473    -0.1142 H       
  43 H43            1.5105    -3.9249     1.2696 H       
  44 H44            2.2406    -2.8368     2.4743 H       
  45 H45            0.5749    -3.4229     2.6981 H       
  46 H46           -4.9180     5.8881     3.8901 H       
  47 H47           -4.3062     6.7623     2.4655 H       
  48 H48           -5.7579     7.3475     3.3130 H       
  49 Br49           9.6607    12.3475     8.8901 Br      
@<TRIPOS>BOND
   1    1    2 2
   2    1   19 1
   3    1    5 1
   4    2    3 1
   5    2   13 1
   6    3    4 1
   7    4    5 2
   8    4    6 1
   9    6    7 1
  10    6   29 1
  11    7    8 ar
  12    7   12 ar
  13    8    9 ar
  14    8   30 1
  15    9   10 ar
  16    9   31 1
  17   10   11 ar
  18   10   25 1
  19   11   12 ar
  20   11   32 1
  21   12   33 1
  22   13   14 ar
  23   13   15 ar
  24   14   18 ar
  25   14   34 1
  26   15   16 ar
  27   15   26 1
  28   16   17 ar
  29   16   35 1
  30   17   18 ar
  31   17   36 1
  32   18   37 1
  33   19   20 ar
  34   19   21 ar
  35   20   24 ar
  36   20   38 1
  37   21   22 ar
  38   21   39 1
  39   22   23 ar
  40   22   40 1
  41   23   24 ar
  42   23   41 1
  43   24   42 1
  44   25   28 1
  45   26   27 1
  46   27   43 1
  47   27   44 1
  48   27   45 1
  49   28   46 1
  50   28   47 1
  51   28   48 1

#	End of record

