#	Name: ASD04590533
#	Creating user name:	WinNT
#	Creation time:	15. 06. 2019 20:51

#	Modifying user name:	WinNT
#	Modification time:	15. 06. 2019 20:51

#	Program:	/corina/corina34_cracker 3.40 0067  02.08.2006

@<TRIPOS>MOLECULE
ASD04590533
  68   72    0    0    0
SMALL
NO_CHARGES


@<TRIPOS>ATOM
   1 C1            -0.0169     1.3919     0.0097 C.ar    
   2 C2             0.0021    -0.0041     0.0020 C.ar    
   3 C3            -2.4013    -0.0383     0.0252 C.ar    
   4 C4            -2.4140     1.3672     0.0440 C.ar    
   5 C5            -1.2195     2.0733     0.0306 C.ar    
   6 N6            -3.6930    -0.4516     0.0444 N.2     
   7 C7            -4.4887     0.5897     0.0732 C.2     
   8 N8            -3.7459     1.7405     0.0743 N.pl3   
   9 C9            -5.9648     0.5309     0.1010 C.2     
  10 C10           -6.7501    -0.6451     0.1014 C.2     
  11 C11           -8.0529    -0.2721     0.1317 C.2     
  12 N12           -8.0970     1.0860     0.1498 N.pl3   
  13 N13           -6.7813     1.5658     0.1355 N.2     
  14 N14           -6.2667    -1.9634     0.0751 N.am    
  15 C15           -7.1304    -2.9980     0.0789 C.2     
  16 O16           -8.3283    -2.7900     0.1050 O.2     
  17 C17           -1.1781    -0.7176     0.0095 C.ar    
  18 C18           -6.6226    -4.3828     0.0513 C.ar    
  19 O19            1.1536     2.0847     0.0022 O.3     
  20 C20            1.0634     3.5109     0.0108 C.3     
  21 C21           -7.5171    -5.4617     0.0551 C.ar    
  22 O22            1.1915    -0.6643    -0.0133 O.3     
  23 C23            1.1408    -2.0924    -0.0205 C.3     
  24 C24           -7.0285    -6.7595     0.0290 C.ar    
  25 C25           -5.6669    -6.9860    -0.0006 C.ar    
  26 C26           -4.7793    -5.9222    -0.0039 C.ar    
  27 C27           -5.2473    -4.6263     0.0154 C.ar    
  28 S28           -3.0444    -6.2276    -0.0406 S.o2    
  29 O29           -8.8547    -5.2377     0.0845 O.3     
  30 C30           -9.7050    -6.3862     0.0866 C.3     
  31 N31           -2.5917    -6.2926    -1.6322 N.am    
  32 O32           -2.4221    -5.0733     0.5067 O.2     
  33 O33           -2.8559    -7.5347     0.4839 O.2     
  34 C34           -2.1662    -5.0792    -2.3462 C.3     
  35 C35           -2.5985    -7.5664    -2.3676 C.3     
  36 C36           -1.2358    -7.7444    -3.0455 C.3     
  37 N37           -0.9391    -6.5585    -3.8601 N.3     
  38 C38           -0.8214    -5.3602    -3.0251 C.3     
  39 C39            0.2756    -6.7606    -4.6611 C.3     
  40 H40           -1.2293     3.1532     0.0368 H       
  41 H41           -4.0893     2.6475     0.0932 H       
  42 H42           -8.9045    -0.9363     0.1396 H       
  43 H43           -8.9005     1.6290     0.1725 H       
  44 H44           -5.3112    -2.1293     0.0543 H       
  45 H45           -1.1583    -1.7974     0.0027 H       
  46 H46            0.5192     3.8458    -0.8723 H       
  47 H47            0.5362     3.8362     0.9076 H       
  48 H48            2.0660     3.9384     0.0035 H       
  49 H49            0.6232    -2.4420     0.8728 H       
  50 H50            0.6056    -2.4325    -0.9070 H       
  51 H51            2.1548    -2.4919    -0.0327 H       
  52 H52           -7.7141    -7.5940     0.0322 H       
  53 H53           -5.2914    -7.9984    -0.0208 H       
  54 H54           -4.5518    -3.8001     0.0123 H       
  55 H55           -9.4906    -6.9954     0.9646 H       
  56 H56          -10.7469    -6.0669     0.1114 H       
  57 H57           -9.5260    -6.9723    -0.8148 H       
  58 H58           -2.9093    -4.8183    -3.0998 H       
  59 H59           -2.0545    -4.2580    -1.6383 H       
  60 H60           -2.7725    -8.3888    -1.6737 H       
  61 H61           -3.3839    -7.5488    -3.1232 H       
  62 H62           -0.4644    -7.8657    -2.2851 H       
  63 H63           -1.2598    -8.6275    -3.6840 H       
  64 H64           -0.5480    -4.5084    -3.6478 H       
  65 H65           -0.0539    -5.5187    -2.2675 H       
  66 H66            0.1355    -7.6141    -5.3245 H       
  67 H67            0.4722    -5.8677    -5.2546 H       
  68 H68            1.1203    -6.9499    -3.9988 H       
@<TRIPOS>BOND
   1    1    2 ar
   2    1   19 1
   3    1    5 ar
   4    2   17 ar
   5    2   22 1
   6    3    4 ar
   7    3    6 1
   8    3   17 ar
   9    4    5 ar
  10    4    8 1
  11    5   40 1
  12    6    7 2
  13    7    8 1
  14    7    9 1
  15    8   41 1
  16    9   10 1
  17    9   13 2
  18   10   11 2
  19   10   14 1
  20   11   12 1
  21   11   42 1
  22   12   13 1
  23   12   43 1
  24   14   15 am
  25   14   44 1
  26   15   16 2
  27   15   18 1
  28   17   45 1
  29   18   21 ar
  30   18   27 ar
  31   19   20 1
  32   20   46 1
  33   20   47 1
  34   20   48 1
  35   21   24 ar
  36   21   29 1
  37   22   23 1
  38   23   49 1
  39   23   50 1
  40   23   51 1
  41   24   25 ar
  42   24   52 1
  43   25   26 ar
  44   25   53 1
  45   26   27 ar
  46   26   28 1
  47   27   54 1
  48   28   31 am
  49   28   32 2
  50   28   33 2
  51   29   30 1
  52   30   55 1
  53   30   56 1
  54   30   57 1
  55   31   34 1
  56   31   35 1
  57   34   38 1
  58   34   58 1
  59   34   59 1
  60   35   36 1
  61   35   60 1
  62   35   61 1
  63   36   37 1
  64   36   62 1
  65   36   63 1
  66   37   38 1
  67   37   39 1
  68   38   64 1
  69   38   65 1
  70   39   66 1
  71   39   67 1
  72   39   68 1

#	End of record

