#	Name: ASD01813960
#	Creating user name:	WinNT
#	Creation time:	15. 06. 2019 19:31

#	Modifying user name:	WinNT
#	Modification time:	15. 06. 2019 19:31

#	Program:	/corina/corina34_cracker 3.40 0067  02.08.2006

@<TRIPOS>MOLECULE
ASD01813960
  47   49    0    0    0
SMALL
NO_CHARGES


@<TRIPOS>ATOM
   1 C1            -0.5552     0.7238     0.2434 C.ar    
   2 C2            -0.2948    -0.6376     0.2291 C.ar    
   3 C3             0.9978    -1.1076     0.1359 C.ar    
   4 C4             2.0604    -0.2126     0.0541 C.ar    
   5 C5             1.7969     1.1682     0.0680 C.ar    
   6 C6             0.4824     1.6315     0.1635 C.ar    
   7 N7             3.3567    -0.6716    -0.0390 N.pl3   
   8 C8             4.4128     0.1482    -0.1191 C.2     
   9 C9             4.2794     1.5218    -0.1147 C.2     
  10 C10            2.9309     2.1050    -0.0192 C.2     
  11 F11            0.2281     2.9583     0.1769 F       
  12 O12            2.7600     3.3116    -0.0117 O.2     
  13 C13            5.4634     2.3877    -0.2033 C.2     
  14 O14            5.3201     3.7282    -0.1981 O.3     
  15 O15            6.5721     1.8953    -0.2814 O.2     
  16 C16            3.5893    -2.1180    -0.0503 C.3     
  17 C17            3.5654    -2.6195    -1.4712 C.ar    
  18 C18            4.7344    -2.6587    -2.2089 C.ar    
  19 C19            4.7157    -3.1177    -3.5113 C.ar    
  20 C20            3.5214    -3.5407    -4.0799 C.ar    
  21 C21            2.3493    -3.5006    -3.3363 C.ar    
  22 C22            2.3754    -3.0449    -2.0327 C.ar    
  23 N23            3.4991    -4.0059    -5.3993 N.am    
  24 C24            4.5417    -4.7094    -5.8836 C.2     
  25 O25            5.5346    -4.8668    -5.2050 O.2     
  26 C26            4.4740    -5.3003    -7.2683 C.3     
  27 C27            5.7771    -6.0430    -7.5701 C.3     
  28 C28            3.2995    -6.2775    -7.3488 C.3     
  29 H29           -1.5738     1.0760     0.3128 H       
  30 H30           -1.1142    -1.3384     0.2922 H       
  31 H31            1.1860    -2.1710     0.1266 H       
  32 H32            5.4018    -0.2800    -0.1891 H       
  33 H33            6.1279     4.2563    -0.2583 H       
  34 H34            4.5608    -2.3333     0.3946 H       
  35 H35            2.8083    -2.6161     0.5240 H       
  36 H36            5.6628    -2.3296    -1.7661 H       
  37 H37            5.6289    -3.1474    -4.0872 H       
  38 H38            1.4189    -3.8288    -3.7756 H       
  39 H39            1.4643    -3.0138    -1.4538 H       
  40 H40            2.7332    -3.8222    -5.9655 H       
  41 H41            4.3333    -4.5023    -7.9974 H       
  42 H42            5.9177    -6.8410    -6.8411 H       
  43 H43            5.7280    -6.4704    -8.5717 H       
  44 H44            6.6138    -5.3468    -7.5128 H       
  45 H45            3.4401    -7.0755    -6.6197 H       
  46 H46            2.3711    -5.7484    -7.1337 H       
  47 H47            3.2504    -6.7049    -8.3503 H       
@<TRIPOS>BOND
   1    1    2 ar
   2    1    6 ar
   3    1   29 1
   4    2    3 ar
   5    2   30 1
   6    3    4 ar
   7    3   31 1
   8    4    5 ar
   9    4    7 1
  10    5    6 ar
  11    5   10 1
  12    6   11 1
  13    7    8 1
  14    7   16 1
  15    8    9 2
  16    8   32 1
  17    9   10 1
  18    9   13 1
  19   10   12 2
  20   13   14 1
  21   13   15 2
  22   14   33 1
  23   16   17 1
  24   16   34 1
  25   16   35 1
  26   17   18 ar
  27   17   22 ar
  28   18   19 ar
  29   18   36 1
  30   19   20 ar
  31   19   37 1
  32   20   21 ar
  33   20   23 1
  34   21   22 ar
  35   21   38 1
  36   22   39 1
  37   23   24 am
  38   23   40 1
  39   24   25 2
  40   24   26 1
  41   26   27 1
  42   26   28 1
  43   26   41 1
  44   27   42 1
  45   27   43 1
  46   27   44 1
  47   28   45 1
  48   28   46 1
  49   28   47 1

#	End of record

