#	Name: ASD03240817
#	Creating user name:	WinNT
#	Creation time:	15. 06. 2019 20:35

#	Modifying user name:	WinNT
#	Modification time:	15. 06. 2019 20:35

#	Program:	/corina/corina34_cracker 3.40 0067  02.08.2006

@<TRIPOS>MOLECULE
ASD03240817
  66   73    0    0    0
SMALL
NO_CHARGES


@<TRIPOS>ATOM
   1 C1            -0.0470     1.2459     0.1175 C.3     
   2 C2             0.1513    -0.2778     0.0552 C.3     
   3 C3             1.5491    -0.0412     0.6511 C.3     
   4 C4             1.4840     1.3693     0.0418 C.3     
   5 O5            -0.7216     1.7825    -1.0222 O.3     
   6 C6             2.6192    -0.9120     0.0446 C.ar    
   7 C7             3.7105    -1.2927     0.8050 C.ar    
   8 C8             4.6932    -2.0902     0.2556 C.ar    
   9 C9             4.5848    -2.5126    -1.0693 C.ar    
  10 C10            3.4821    -2.1254    -1.8308 C.ar    
  11 C11            2.5033    -1.3320    -1.2684 C.ar    
  12 N12            9.1888    -3.7370    -1.4381 N.pl3   
  13 C13           10.1760    -4.5165    -1.9774 C.2     
  14 N14            9.9114    -5.4810    -2.8765 N.2     
  15 C15            8.6952    -5.7306    -3.2884 C.2     
  16 C16            7.5886    -4.9383    -2.7562 C.ar    
  17 C17            6.2668    -5.1574    -3.1586 C.ar    
  18 C18            5.2751    -4.3571    -2.6012 C.ar    
  19 C19            5.6363    -3.3683    -1.6653 C.ar    
  20 N20            6.8994    -3.1897    -1.3088 N.ar    
  21 C21            7.8728    -3.9281    -1.8129 C.ar    
  22 C22           11.3724    -4.0930    -1.4147 C.2     
  23 C23           11.0831    -3.0555    -0.5373 C.2     
  24 N24            9.7902    -2.8359    -0.5510 N.2     
  25 C25            3.8559    -4.5414    -2.9885 C.ar    
  26 C26            3.4989    -4.5917    -4.3351 C.ar    
  27 C27            2.1764    -4.7639    -4.6896 C.ar    
  28 C28            1.2057    -4.8865    -3.7117 C.ar    
  29 C29            1.5540    -4.8369    -2.3738 C.ar    
  30 C30            2.8741    -4.6708    -2.0074 C.ar    
  31 C31           12.0912    -2.3012     0.2907 C.3     
  32 C32           12.4940    -2.9062     1.6371 C.3     
  33 C33           13.4754    -2.9297     0.4636 C.3     
  34 C34           -0.6363     1.7336     1.4426 C.3     
  35 C35           -0.7319     3.2451     1.6595 C.3     
  36 C36           -1.9987     2.4283     1.3967 C.3     
  37 N37            1.5714    -0.0472     2.1199 N.3     
  38 H38           -0.5163    -0.8323     0.7146 H       
  39 H39            0.1708    -0.6744    -0.9599 H       
  40 H40            1.8678     1.4229    -0.9770 H       
  41 H41            1.8922     2.1444     0.6903 H       
  42 H42           -0.3465     1.5035    -1.8687 H       
  43 H43            3.7934    -0.9646     1.8307 H       
  44 H44            5.5449    -2.3865     0.8501 H       
  45 H45            3.3928    -2.4490    -2.8573 H       
  46 H46            1.6470    -1.0349    -1.8557 H       
  47 H47            8.5115    -6.5112    -4.0118 H       
  48 H48            6.0239    -5.9243    -3.8792 H       
  49 H49           12.3521    -4.4977    -1.6215 H       
  50 H50            4.2559    -4.4958    -5.0994 H       
  51 H51            1.8986    -4.8027    -5.7325 H       
  52 H52            0.1719    -5.0211    -3.9938 H       
  53 H53            0.7918    -4.9324    -1.6146 H       
  54 H54            3.1454    -4.6367    -0.9626 H       
  55 H55           12.0363    -1.2147     0.2235 H       
  56 H56           12.7044    -2.2177     2.4555 H       
  57 H57           12.0297    -3.8498     1.9239 H       
  58 H58           13.6569    -3.8887    -0.0216 H       
  59 H59           14.3315    -2.2566     0.5100 H       
  60 H60           -0.4163     1.1134     2.3115 H       
  61 H61           -0.5752     3.6193     2.6712 H       
  62 H62           -0.3750     3.8921     0.8582 H       
  63 H63           -2.4752     2.5380     0.4225 H       
  64 H64           -2.6754     2.2652     2.2355 H       
  65 H65            2.5187    -0.0575     2.4672 H       
  66 H66            1.0581     0.7375     2.4925 H       
@<TRIPOS>BOND
   1    1    2 1
   2    1    4 1
   3    1    5 1
   4    1   34 1
   5    2    3 1
   6    2   38 1
   7    2   39 1
   8    3    4 1
   9    3    6 1
  10    3   37 1
  11    4   40 1
  12    4   41 1
  13    5   42 1
  14    6    7 ar
  15    6   11 ar
  16    7    8 ar
  17    7   43 1
  18    8    9 ar
  19    8   44 1
  20    9   10 ar
  21    9   19 1
  22   10   11 ar
  23   10   45 1
  24   11   46 1
  25   12   13 1
  26   12   21 1
  27   12   24 1
  28   13   14 1
  29   13   22 2
  30   14   15 2
  31   15   16 1
  32   15   47 1
  33   16   17 ar
  34   16   21 ar
  35   17   18 ar
  36   17   48 1
  37   18   19 ar
  38   18   25 1
  39   19   20 ar
  40   20   21 ar
  41   22   23 1
  42   22   49 1
  43   23   24 2
  44   23   31 1
  45   25   26 ar
  46   25   30 ar
  47   26   27 ar
  48   26   50 1
  49   27   28 ar
  50   27   51 1
  51   28   29 ar
  52   28   52 1
  53   29   30 ar
  54   29   53 1
  55   30   54 1
  56   31   32 1
  57   31   33 1
  58   31   55 1
  59   32   33 1
  60   32   56 1
  61   32   57 1
  62   33   58 1
  63   33   59 1
  64   34   35 1
  65   34   36 1
  66   34   60 1
  67   35   36 1
  68   35   61 1
  69   35   62 1
  70   36   63 1
  71   36   64 1
  72   37   65 1
  73   37   66 1

#	End of record

