#	Name: ASD00841035
#	Creating user name:	WinNT
#	Creation time:	15. 06. 2019 18:40

#	Modifying user name:	WinNT
#	Modification time:	15. 06. 2019 18:40

#	Program:	/corina/corina34_cracker 3.40 0067  02.08.2006

@<TRIPOS>MOLECULE
ASD00841035
  83   88    0    0    0
SMALL
NO_CHARGES


@<TRIPOS>ATOM
   1 N1            -0.0159     1.3183     0.0093 N.ar    
   2 C2             0.0021    -0.0041     0.0020 C.ar    
   3 C3             1.2069    -0.6955    -0.0132 C.ar    
   4 C4             2.3925     0.0180    -0.0207 C.ar    
   5 C5             2.3308     1.4049    -0.0127 C.ar    
   6 C6             1.0980     2.0259     0.0025 C.ar    
   7 C7             1.2224    -2.2024    -0.0209 C.3     
   8 C8             0.4763    -2.7343    -1.2260 C.2     
   9 O9             2.5880    -2.6958    -0.0096 O.3     
  10 C10            3.3814    -2.3221    -1.0311 C.2     
  11 N11            4.6601    -2.7453    -1.0809 N.am    
  12 O12            2.9448    -1.6033    -1.9081 O.2     
  13 C13            5.5381    -2.3459    -2.1892 C.3     
  14 C14            6.1425    -3.6054    -2.8179 C.3     
  15 C15            6.8369    -4.4300    -1.7316 C.3     
  16 C16            5.8107    -4.8596    -0.6806 C.3     
  17 C17            5.2042    -3.6097    -0.0248 C.3     
  18 C18            7.4715    -5.6715    -2.3616 C.3     
  19 C19            8.4998    -5.2434    -3.4122 C.3     
  20 C20            9.1744    -6.4872    -3.9952 C.3     
  21 N21            9.8319    -7.2389    -2.9187 N.3     
  22 C22            8.8575    -7.7012    -1.9220 C.3     
  23 C23            8.1734    -6.4936    -1.2772 C.3     
  24 H24           10.3638    -8.0118    -3.2900 H       
  25 O25            0.7557    -2.5393    -2.3900 O.2     
  26 N26           -0.5539    -3.4626    -0.7638 N.am    
  27 C27            0.4501    -2.7460     1.1591 C.ar    
  28 C28           -0.5980    -3.4898     0.6311 C.ar    
  29 C29            0.6149    -2.6258     2.5206 C.ar    
  30 C30           -0.2710    -3.2513     3.3818 C.ar    
  31 C31           -1.3206    -3.9961     2.8679 C.ar    
  32 C32           -1.4864    -4.1171     1.5014 C.ar    
  33 Cl33          -0.0671    -3.1033     5.0994 Cl      
  34 F34           -2.1857    -4.6069     3.7068 F       
  35 C35           -1.0174    -5.8570    -2.0393 C.ar    
  36 C36            0.1602    -6.0221    -2.7534 C.ar    
  37 C37           -1.6942    -6.9621    -1.5601 C.ar    
  38 C38           -1.1983    -8.2317    -1.7914 C.ar    
  39 C39           -0.0245    -8.3990    -2.5031 C.ar    
  40 C40            0.6555    -7.2974    -2.9847 C.ar    
  41 H41            0.3608    -9.3918    -2.6825 H       
  42 O42            0.8275    -4.9367    -3.2262 O.3     
  43 C43            2.0331    -5.1822    -3.9529 C.3     
  44 S44           -1.6459    -4.2388    -1.7372 S.o2    
  45 O45           -2.8262    -4.4047    -0.9636 O.2     
  46 O46           -1.6238    -3.5603    -2.9856 O.2     
  47 O47           -1.1673    -0.6919     0.0099 O.3     
  48 C48           -3.5777    -0.8652     0.0330 C.3     
  49 C49           -2.3720     0.0766     0.0260 C.3     
  50 H50            3.3442    -0.4925    -0.0322 H       
  51 H51            3.2375     1.9916    -0.0178 H       
  52 H52            1.0444     3.1046     0.0084 H       
  53 H53            4.9588    -1.8057    -2.9380 H       
  54 H54            6.3363    -1.7072    -1.8110 H       
  55 H55            5.3512    -4.1992    -3.2754 H       
  56 H56            6.8694    -3.3196    -3.5781 H       
  57 H57            7.6116    -3.8273    -1.2576 H       
  58 H58            5.0225    -5.4416    -1.1583 H       
  59 H59            6.3014    -5.4664     0.0803 H       
  60 H60            5.9766    -3.0766     0.5294 H       
  61 H61            4.4031    -3.9050     0.6529 H       
  62 H62            6.6975    -6.2760    -2.8345 H       
  63 H63            7.9986    -4.6939    -4.2092 H       
  64 H64            9.2516    -4.6059    -2.9470 H       
  65 H65            8.4239    -7.1175    -4.4723 H       
  66 H66            9.9173    -6.1851    -4.7334 H       
  67 H67            8.1086    -8.3258    -2.4089 H       
  68 H68            9.3703    -8.2809    -1.1545 H       
  69 H69            8.9201    -5.8758    -0.7783 H       
  70 H70            7.4391    -6.8374    -0.5487 H       
  71 H71            1.4345    -2.0447     2.9166 H       
  72 H72           -2.3067    -4.6987     1.1074 H       
  73 H73           -2.6111    -6.8340    -1.0040 H       
  74 H74           -1.7284    -9.0942    -1.4154 H       
  75 H75            1.5719    -7.4287    -3.5410 H       
  76 H76            2.7428    -5.7064    -3.3129 H       
  77 H77            1.8120    -5.7939    -4.8276 H       
  78 H78            2.4642    -4.2335    -4.2727 H       
  79 H79           -3.5566    -1.4891    -0.8606 H       
  80 H80           -3.5390    -1.4986     0.9192 H       
  81 H81           -4.4966    -0.2790     0.0452 H       
  82 H82           -2.3931     0.7004     0.9196 H       
  83 H83           -2.4108     0.7099    -0.8602 H       
@<TRIPOS>BOND
   1    1    2 ar
   2    1    6 ar
   3    2    3 ar
   4    2   47 1
   5    3    4 ar
   6    3    7 1
   7    4    5 ar
   8    4   50 1
   9    5    6 ar
  10    5   51 1
  11    6   52 1
  12    7    8 1
  13    7    9 1
  14    7   27 1
  15    8   25 2
  16    8   26 am
  17    9   10 1
  18   10   11 am
  19   10   12 2
  20   11   13 1
  21   11   17 1
  22   13   14 1
  23   13   53 1
  24   13   54 1
  25   14   15 1
  26   14   55 1
  27   14   56 1
  28   15   16 1
  29   15   18 1
  30   15   57 1
  31   16   17 1
  32   16   58 1
  33   16   59 1
  34   17   60 1
  35   17   61 1
  36   18   19 1
  37   18   23 1
  38   18   62 1
  39   19   20 1
  40   19   63 1
  41   19   64 1
  42   20   21 1
  43   20   65 1
  44   20   66 1
  45   21   22 1
  46   21   24 1
  47   22   23 1
  48   22   67 1
  49   22   68 1
  50   23   69 1
  51   23   70 1
  52   26   44 am
  53   26   28 1
  54   27   28 ar
  55   27   29 ar
  56   28   32 ar
  57   29   30 ar
  58   29   71 1
  59   30   31 ar
  60   30   33 1
  61   31   32 ar
  62   31   34 1
  63   32   72 1
  64   35   36 ar
  65   35   37 ar
  66   35   44 1
  67   36   42 1
  68   36   40 ar
  69   37   38 ar
  70   37   73 1
  71   38   39 ar
  72   38   74 1
  73   39   40 ar
  74   39   41 1
  75   40   75 1
  76   42   43 1
  77   43   76 1
  78   43   77 1
  79   43   78 1
  80   44   45 2
  81   44   46 2
  82   47   49 1
  83   48   49 1
  84   48   79 1
  85   48   80 1
  86   48   81 1
  87   49   82 1
  88   49   83 1

#	End of record

