#	Name: ASD01918331
#	Creating user name:	WinNT
#	Creation time:	15. 06. 2019 20:11

#	Modifying user name:	WinNT
#	Modification time:	15. 06. 2019 20:11

#	Program:	/corina/corina34_cracker 3.40 0067  02.08.2006

@<TRIPOS>MOLECULE
ASD01918331
  33   35    0    0    0
SMALL
NO_CHARGES


@<TRIPOS>ATOM
   1 C1             0.1893     1.5918     0.0460 C.3     
   2 C2            -0.0269     0.0794     0.1282 C.3     
   3 C3             0.3005    -0.5583    -1.2283 C.3     
   4 C4            -0.0217    -2.0357    -1.1261 C.2     
   5 O5            -0.5870    -2.6200    -2.0263 O.2     
   6 C6             0.3766    -2.7340     0.1040 C.ar    
   7 C7             0.3329    -4.1322     0.1776 C.ar    
   8 N8             0.6964    -4.7175     1.3044 N.ar    
   9 C9             1.0943    -3.9971     2.3455 C.ar    
  10 N10            1.4629    -4.6486     3.5040 N.pl3   
  11 C11            1.5248    -6.0459     3.5312 C.ar    
  12 C12            1.9034    -6.7585     2.3958 C.ar    
  13 C13            1.9499    -8.1406     2.4713 C.ar    
  14 C14            1.6216    -8.7637     3.6625 C.ar    
  15 Cl15           1.6771   -10.4957     3.7666 Cl      
  16 N16            1.2672    -8.0591     4.7206 N.ar    
  17 C17            1.2153    -6.7422     4.6921 C.ar    
  18 N18            1.1502    -2.6716     2.3107 N.ar    
  19 C19            0.8058    -2.0078     1.2211 C.ar    
  20 C20            0.8871    -0.5076     1.2012 C.3     
  21 H21            1.2287     1.7969    -0.2100 H       
  22 H22           -0.4631     2.0110    -0.7200 H       
  23 H23           -0.0438     2.0451     1.0095 H       
  24 H24           -1.0663    -0.1256     0.3845 H       
  25 H25           -0.3065    -0.1001    -2.0090 H       
  26 H26            1.3584    -0.4249    -1.4544 H       
  27 H27            0.0085    -4.7191    -0.6689 H       
  28 H28            1.6791    -4.1380     4.2998 H       
  29 H29            2.1541    -6.2458     1.4789 H       
  30 H30            2.2388    -8.7253     1.6105 H       
  31 H31            0.9249    -6.1994     5.5795 H       
  32 H32            1.9152    -0.2081     0.9980 H       
  33 H33            0.5889    -0.1205     2.1756 H       
@<TRIPOS>BOND
   1    1    2 1
   2    1   21 1
   3    1   22 1
   4    1   23 1
   5    2   20 1
   6    2    3 1
   7    2   24 1
   8    3    4 1
   9    3   25 1
  10    3   26 1
  11    4    5 2
  12    4    6 1
  13    6   19 ar
  14    6    7 ar
  15    7    8 ar
  16    7   27 1
  17    8    9 ar
  18    9   10 1
  19    9   18 ar
  20   10   11 1
  21   10   28 1
  22   11   17 ar
  23   11   12 ar
  24   12   13 ar
  25   12   29 1
  26   13   14 ar
  27   13   30 1
  28   14   15 1
  29   14   16 ar
  30   16   17 ar
  31   17   31 1
  32   18   19 ar
  33   19   20 1
  34   20   32 1
  35   20   33 1

#	End of record

