#	Name: ASD07930236
#	Creating user name:	WinNT
#	Creation time:	15. 06. 2019 21:12

#	Modifying user name:	WinNT
#	Modification time:	15. 06. 2019 21:12

#	Program:	/corina/corina34_cracker 3.40 0067  02.08.2006

@<TRIPOS>MOLECULE
ASD07930236
  57   61    0    0    0
SMALL
NO_CHARGES


@<TRIPOS>ATOM
   1 C1             0.5996     0.7351     0.1849 C.2     
   2 C2             0.8805    -0.5962     0.3265 C.2     
   3 C3             2.2804    -1.0162     0.4269 C.2     
   4 N4             3.2511    -0.0874     0.3794 N.am    
   5 C5             2.9429     1.2464     0.2344 C.2     
   6 C6             1.6499     1.6602     0.1390 C.2     
   7 C7             4.6648    -0.4734     0.4834 C.3     
   8 C8             5.4653     0.3782    -0.5131 C.3     
   9 N9             5.2842     1.7951    -0.1667 N.am    
  10 C10            4.0490     2.2278     0.1823 C.2     
  11 C11            6.4183     2.7219    -0.1983 C.3     
  12 O12            3.8533     3.3982     0.4472 O.2     
  13 O13            2.5621    -2.1958     0.5525 O.2     
  14 N14           -0.1501    -1.5392     0.3752 N.pl3   
  15 C15           -0.3928    -2.5186    -0.5353 C.2     
  16 N16           -1.4382    -3.1967    -0.1471 N.2     
  17 C17           -1.8963    -2.6864     1.0058 C.2     
  18 C18           -1.1040    -1.6548     1.3536 C.2     
  19 C19           -3.0883    -3.1856     1.7811 C.3     
  20 C20            6.5950     3.2635    -1.6183 C.3     
  21 O21            5.4580     4.0537    -1.9717 O.3     
  22 C22            5.4826     4.6611    -3.1865 C.ar    
  23 C23            4.4604     5.5429    -3.5509 C.ar    
  24 C24            6.5236     4.4136    -4.0665 C.ar    
  25 C25            6.5480     5.0330    -5.3020 C.ar    
  26 C26            5.5353     5.9019    -5.6673 C.ar    
  27 C27            4.4945     6.1613    -4.7983 C.ar    
  28 C28            3.3444     5.8181    -2.6133 C.ar    
  29 C29            3.0263     7.1310    -2.2708 C.ar    
  30 C30            2.6065     4.7650    -2.0761 C.ar    
  31 C31            1.5689     5.0269    -1.2045 C.ar    
  32 C32            1.2609     6.3318    -0.8641 C.ar    
  33 C33            1.9866     7.3812    -1.3983 C.ar    
  34 H34           -0.4241     1.0697     0.1046 H       
  35 H35            1.4318     2.7120     0.0267 H       
  36 H36            5.0233    -0.2895     1.4962 H       
  37 H37            4.7770    -1.5296     0.2385 H       
  38 H38            6.5220     0.1182    -0.4510 H       
  39 H39            5.0999     0.1989    -1.5243 H       
  40 H40            6.2302     3.5497     0.4855 H       
  41 H41            7.3244     2.1980     0.1061 H       
  42 H42            0.1825    -2.7042    -1.4302 H       
  43 H43           -1.2047    -1.0331     2.2310 H       
  44 H44           -2.7662    -3.9451     2.4935 H       
  45 H45           -3.5463    -2.3549     2.3180 H       
  46 H46           -3.8144    -3.6178     1.0927 H       
  47 H47            7.4934     3.8791    -1.6632 H       
  48 H48            6.6898     2.4310    -2.3155 H       
  49 H49            7.3170     3.7363    -3.7869 H       
  50 H50            7.3615     4.8381    -5.9850 H       
  51 H51            5.5612     6.3822    -6.6343 H       
  52 H52            3.7057     6.8400    -5.0869 H       
  53 H53            3.5924     7.9511    -2.6871 H       
  54 H54            2.8458     3.7459    -2.3415 H       
  55 H55            0.9961     4.2116    -0.7879 H       
  56 H56            0.4479     6.5322    -0.1819 H       
  57 H57            1.7420     8.3980    -1.1287 H       
@<TRIPOS>BOND
   1    1    2 2
   2    1    6 1
   3    1   34 1
   4    2    3 1
   5    2   14 1
   6    3    4 am
   7    3   13 2
   8    4    5 1
   9    4    7 1
  10    5    6 2
  11    5   10 1
  12    6   35 1
  13    7    8 1
  14    7   36 1
  15    7   37 1
  16    8    9 1
  17    8   38 1
  18    8   39 1
  19    9   10 am
  20    9   11 1
  21   10   12 2
  22   11   20 1
  23   11   40 1
  24   11   41 1
  25   14   15 1
  26   14   18 1
  27   15   16 2
  28   15   42 1
  29   16   17 1
  30   17   18 2
  31   17   19 1
  32   18   43 1
  33   19   44 1
  34   19   45 1
  35   19   46 1
  36   20   21 1
  37   20   47 1
  38   20   48 1
  39   21   22 1
  40   22   23 ar
  41   22   24 ar
  42   23   28 1
  43   23   27 ar
  44   24   25 ar
  45   24   49 1
  46   25   26 ar
  47   25   50 1
  48   26   27 ar
  49   26   51 1
  50   27   52 1
  51   28   29 ar
  52   28   30 ar
  53   29   33 ar
  54   29   53 1
  55   30   31 ar
  56   30   54 1
  57   31   32 ar
  58   31   55 1
  59   32   33 ar
  60   32   56 1
  61   33   57 1

#	End of record

