#	Name: ASD01813633
#	Creating user name:	WinNT
#	Creation time:	15. 06. 2019 19:30

#	Modifying user name:	WinNT
#	Modification time:	15. 06. 2019 19:30

#	Program:	/corina/corina34_cracker 3.40 0067  02.08.2006

@<TRIPOS>MOLECULE
ASD01813633
  49   52    0    0    0
SMALL
NO_CHARGES


@<TRIPOS>ATOM
   1 C1             0.0983     1.4757     0.3579 C.ar    
   2 C2             0.0802     0.0885     0.3501 C.ar    
   3 C3             1.2503    -0.6305     0.2193 C.ar    
   4 C4             2.4674     0.0384     0.0928 C.ar    
   5 C5             2.4810     1.4431     0.1007 C.ar    
   6 C6             1.2896     2.1561     0.2343 C.ar    
   7 N7             3.6443    -0.6677    -0.0382 N.pl3   
   8 C8             4.8373    -0.0729    -0.1622 C.2     
   9 C9             4.9774     1.3005    -0.1677 C.2     
  10 C10            3.7748     2.1383    -0.0340 C.2     
  11 O11            3.8451     3.3548    -0.0334 O.2     
  12 C12            3.5871    -2.1316    -0.0413 C.3     
  13 C13            3.4439    -2.6257    -1.4578 C.ar    
  14 C14            4.5588    -2.7707    -2.2623 C.ar    
  15 N15            4.4467    -3.2014    -3.5025 N.ar    
  16 C16            3.2685    -3.5119    -4.0270 C.ar    
  17 C17            2.1033    -3.3900    -3.2727 C.ar    
  18 C18            2.1922    -2.9450    -1.9652 C.ar    
  19 F19            1.2171    -1.9811     0.2143 F       
  20 C20            3.1908    -3.9923    -5.4284 C.ar    
  21 C21            4.3509    -4.1169    -6.1904 C.ar    
  22 C22            4.2727    -4.5649    -7.4935 C.ar    
  23 C23            3.0457    -4.8895    -8.0435 C.ar    
  24 C24            1.8909    -4.7678    -7.2917 C.ar    
  25 C25            1.9579    -4.3263    -5.9858 C.ar    
  26 C26            5.5263    -4.7001    -8.3188 C.3     
  27 F27            6.0558    -5.9847    -8.1555 F       
  28 F28            5.2214    -4.4894    -9.6678 F       
  29 F29            6.4654    -3.7518    -7.8993 F       
  30 C30            0.5579    -5.1235    -7.8979 C.3     
  31 F31            0.7441    -5.5467    -9.2183 F       
  32 F32           -0.0316    -6.1533    -7.1568 F       
  33 F33           -0.2764    -4.0005    -7.8814 F       
  34 C34            6.3050     1.9156    -0.3056 C.2     
  35 O35            6.4288     3.2580    -0.3095 O.3     
  36 O36            7.2915     1.2139    -0.4161 O.2     
  37 H37           -0.8264     2.0248     0.4570 H       
  38 H38           -0.8599    -0.4341     0.4478 H       
  39 H39            1.3010     3.2361     0.2399 H       
  40 H40            5.7195    -0.6880    -0.2609 H       
  41 H41            4.5035    -2.5320     0.3923 H       
  42 H42            2.7316    -2.4630     0.5473 H       
  43 H43            5.5348    -2.5274    -1.8691 H       
  44 H44            1.1447    -3.6428    -3.7011 H       
  45 H45            1.3065    -2.8408    -1.3560 H       
  46 H46            5.3093    -3.8630    -5.7622 H       
  47 H47            2.9890    -5.2390    -9.0638 H       
  48 H48            1.0557    -4.2317    -5.3997 H       
  49 H49            7.3222     3.6162    -0.4026 H       
@<TRIPOS>BOND
   1    1    2 ar
   2    1    6 ar
   3    1   37 1
   4    2    3 ar
   5    2   38 1
   6    3    4 ar
   7    3   19 1
   8    4    5 ar
   9    4    7 1
  10    5    6 ar
  11    5   10 1
  12    6   39 1
  13    7    8 1
  14    7   12 1
  15    8    9 2
  16    8   40 1
  17    9   10 1
  18    9   34 1
  19   10   11 2
  20   12   13 1
  21   12   41 1
  22   12   42 1
  23   13   14 ar
  24   13   18 ar
  25   14   15 ar
  26   14   43 1
  27   15   16 ar
  28   16   17 ar
  29   16   20 1
  30   17   18 ar
  31   17   44 1
  32   18   45 1
  33   20   21 ar
  34   20   25 ar
  35   21   22 ar
  36   21   46 1
  37   22   23 ar
  38   22   26 1
  39   23   24 ar
  40   23   47 1
  41   24   25 ar
  42   24   30 1
  43   25   48 1
  44   26   27 1
  45   26   28 1
  46   26   29 1
  47   30   31 1
  48   30   32 1
  49   30   33 1
  50   34   35 1
  51   34   36 2
  52   35   49 1

#	End of record

