#	Name: ASD01885644
#	Creating user name:	WinNT
#	Creation time:	15. 06. 2019 19:49

#	Modifying user name:	WinNT
#	Modification time:	15. 06. 2019 19:49

#	Program:	/corina/corina34_cracker 3.40 0067  02.08.2006

@<TRIPOS>MOLECULE
ASD01885644
  43   46    0    0    0
SMALL
NO_CHARGES


@<TRIPOS>ATOM
   1 C1            -0.0170     1.4042     0.0098 C.ar    
   2 C2             1.2139     2.1084     0.0018 C.ar    
   3 C3             1.1963     3.5257     0.0097 C.ar    
   4 C4            -0.0388     4.1602     0.0249 C.ar    
   5 C5            -1.2081     3.3920     0.0319 C.ar    
   6 N6            -1.1700     2.0727     0.0299 N.ar    
   7 C7             0.0021    -0.0041     0.0020 C.ar    
   8 C8             1.1922    -0.6627    -0.0129 C.ar    
   9 C9             2.3993     0.0338    -0.0208 C.ar    
  10 C10            2.4204     1.3961    -0.0132 C.ar    
  11 C11            2.4552     4.3051     0.0024 C.ar    
  12 C12            2.6334     5.3382    -0.9182 C.ar    
  13 C13            3.8076     6.0615    -0.9207 C.ar    
  14 C14            4.8097     5.7637    -0.0107 C.ar    
  15 C15            4.6376     4.7381     0.9056 C.ar    
  16 C16            3.4647     4.0127     0.9199 C.ar    
  17 C17           -2.5230     4.0772     0.0481 C.2     
  18 N18           -3.6599     3.3535     0.0551 N.am    
  19 O19           -2.5754     5.2911     0.0552 O.2     
  20 C20            1.2056    -2.1696    -0.0206 C.3     
  21 F21            5.9581     6.4751    -0.0170 F       
  22 N22            1.1964    -2.6510    -1.4043 N.am    
  23 C23            2.3065    -2.8898    -2.1301 C.2     
  24 C24            1.8167    -3.3673    -3.4829 C.3     
  25 N25            0.3499    -3.3395    -3.3496 N.am    
  26 C26            0.0850    -2.9133    -2.1014 C.2     
  27 O27            3.4574    -2.7509    -1.7753 O.2     
  28 O28           -1.0385    -2.7749    -1.6590 O.2     
  29 H29           -0.0963     5.2386     0.0271 H       
  30 H30           -0.9245    -0.5588     0.0083 H       
  31 H31            3.3303    -0.5135    -0.0323 H       
  32 H32            3.3623     1.9244    -0.0194 H       
  33 H33            1.8534     5.5708    -1.6280 H       
  34 H34            3.9467     6.8611    -1.6332 H       
  35 H35            5.4214     4.5096     1.6125 H       
  36 H36            3.3316     3.2137     1.6342 H       
  37 H37           -3.6181     2.3844     0.0494 H       
  38 H38           -4.5201     3.8018     0.0657 H       
  39 H39            2.1037    -2.5276     0.4826 H       
  40 H40            0.3239    -2.5435     0.5000 H       
  41 H41            2.1432    -2.6882    -4.2705 H       
  42 H42            2.1647    -4.3812    -3.6807 H       
  43 H43           -0.2984    -3.5838    -4.0285 H       
@<TRIPOS>BOND
   1    1    7 ar
   2    1    2 ar
   3    1    6 ar
   4    2    3 ar
   5    2   10 ar
   6    3   11 1
   7    3    4 ar
   8    4    5 ar
   9    4   29 1
  10    5   17 1
  11    5    6 ar
  12    7    8 ar
  13    7   30 1
  14    8    9 ar
  15    8   20 1
  16    9   10 ar
  17    9   31 1
  18   10   32 1
  19   11   12 ar
  20   11   16 ar
  21   12   13 ar
  22   12   33 1
  23   13   14 ar
  24   13   34 1
  25   14   15 ar
  26   14   21 1
  27   15   16 ar
  28   15   35 1
  29   16   36 1
  30   17   18 am
  31   17   19 2
  32   18   37 1
  33   18   38 1
  34   20   22 1
  35   20   39 1
  36   20   40 1
  37   22   23 am
  38   22   26 am
  39   23   24 1
  40   23   27 2
  41   24   25 1
  42   24   41 1
  43   24   42 1
  44   25   26 am
  45   25   43 1
  46   26   28 2

#	End of record

