#	Name: ASD01880112
#	Creating user name:	WinNT
#	Creation time:	15. 06. 2019 19:40

#	Modifying user name:	WinNT
#	Modification time:	15. 06. 2019 19:40

#	Program:	/corina/corina34_cracker 3.40 0067  02.08.2006

@<TRIPOS>MOLECULE
ASD01880112
  66   71    0    0    0
SMALL
NO_CHARGES


@<TRIPOS>ATOM
   1 C1            -0.0168     1.3889     0.0097 C.ar    
   2 C2             0.0021    -0.0041     0.0020 C.ar    
   3 C3            -1.1854    -0.7079     0.0095 C.ar    
   4 C4            -2.3923    -0.0328     0.0246 C.ar    
   5 C5            -2.4169     1.3504     0.0318 C.ar    
   6 C6            -1.2357     2.0640     0.0307 C.ar    
   7 C7            -3.7359     2.0791     0.0473 C.3     
   8 O8            -4.1407     2.3027     1.3994 O.3     
   9 C9            -5.3163     2.9521     1.5909 C.ar    
  10 C10           -6.0666     3.3668     0.4970 C.ar    
  11 C11           -7.2623     4.0274     0.6878 C.ar    
  12 C12           -7.7194     4.2792     1.9833 C.ar    
  13 C13           -6.9510     3.8540     3.0810 C.ar    
  14 C14           -5.7723     3.1973     2.8817 C.ar    
  15 C15           -8.2516     4.5746    -0.3129 C.3     
  16 C16           -9.3883     5.2022     0.5056 C.3     
  17 C17           -9.0051     4.9897     1.9500 C.2     
  18 C18           -9.4978     6.6975     0.2008 C.3     
  19 C19           -9.7884     6.9106    -1.2952 C.3     
  20 C20          -11.1431     7.6434    -1.3810 C.3     
  21 C21          -11.2808     8.3491    -0.0091 C.3     
  22 C22          -10.6862     7.3083     0.9719 C.3     
  23 O23           -9.6473     5.3444     2.9159 O.2     
  24 C24           -4.9558     2.7449     4.0648 C.3     
  25 C25           -7.4339     4.1207     4.4834 C.3     
  26 C26            1.2566     2.1510     0.0016 C.ar    
  27 C27            2.4725     1.4757    -0.0136 C.ar    
  28 C28            3.6638     2.1977    -0.0216 C.ar    
  29 C29            3.6305     3.5925    -0.0143 C.ar    
  30 C30            2.4198     4.2564     0.0013 C.ar    
  31 C31            1.2360     3.5452     0.0035 C.ar    
  32 C32            4.9621     1.4866    -0.0373 C.2     
  33 N33            5.1399     0.1825    -0.0456 N.2     
  34 N34            6.3925    -0.1004    -0.0592 N.2     
  35 N35            7.0968     0.9791    -0.0606 N.2     
  36 N36            6.1928     2.0558    -0.0519 N.pl3   
  37 H37            0.9440    -0.5323    -0.0101 H       
  38 H38           -1.1719    -1.7878     0.0032 H       
  39 H39           -3.3190    -0.5874     0.0305 H       
  40 H40           -1.2560     3.1438     0.0364 H       
  41 H41           -3.6281     3.0364    -0.4627 H       
  42 H42           -4.4888     1.4784    -0.4629 H       
  43 H43           -5.7126     3.1717    -0.5045 H       
  44 H44           -7.7750     5.3325    -0.9347 H       
  45 H45           -8.6394     3.7683    -0.9355 H       
  46 H46          -10.3316     4.7015     0.2876 H       
  47 H47           -8.5728     7.2034     0.4772 H       
  48 H48           -9.0048     7.5206    -1.7446 H       
  49 H49           -9.8513     5.9487    -1.8040 H       
  50 H50          -11.1299     8.3766    -2.1875 H       
  51 H51          -11.9543     6.9300    -1.5261 H       
  52 H52          -10.7021     9.2726     0.0101 H       
  53 H53          -12.3281     8.5434     0.2220 H       
  54 H54          -11.4235     6.5407     1.2067 H       
  55 H55          -10.3394     7.7969     1.8824 H       
  56 H56           -5.2589     1.7380     4.3518 H       
  57 H57           -3.8989     2.7440     3.7979 H       
  58 H58           -5.1189     3.4255     4.9004 H       
  59 H59           -8.0476     3.2856     4.8213 H       
  60 H60           -6.5769     4.2337     5.1474 H       
  61 H61           -8.0264     5.0354     4.4959 H       
  62 H62            2.4929     0.3959    -0.0189 H       
  63 H63            4.5532     4.1538    -0.0205 H       
  64 H64            2.3986     5.3362     0.0073 H       
  65 H65            0.2922     4.0701     0.0157 H       
  66 H66            6.4041     3.0025    -0.0506 H       
@<TRIPOS>BOND
   1    1    2 ar
   2    1   26 1
   3    1    6 ar
   4    2    3 ar
   5    2   37 1
   6    3    4 ar
   7    3   38 1
   8    4    5 ar
   9    4   39 1
  10    5    6 ar
  11    5    7 1
  12    6   40 1
  13    7    8 1
  14    7   41 1
  15    7   42 1
  16    8    9 1
  17    9   10 ar
  18    9   14 ar
  19   10   11 ar
  20   10   43 1
  21   11   12 ar
  22   11   15 1
  23   12   13 ar
  24   12   17 1
  25   13   14 ar
  26   13   25 1
  27   14   24 1
  28   15   16 1
  29   15   44 1
  30   15   45 1
  31   16   17 1
  32   16   18 1
  33   16   46 1
  34   17   23 2
  35   18   19 1
  36   18   22 1
  37   18   47 1
  38   19   20 1
  39   19   48 1
  40   19   49 1
  41   20   21 1
  42   20   50 1
  43   20   51 1
  44   21   22 1
  45   21   52 1
  46   21   53 1
  47   22   54 1
  48   22   55 1
  49   24   56 1
  50   24   57 1
  51   24   58 1
  52   25   59 1
  53   25   60 1
  54   25   61 1
  55   26   27 ar
  56   26   31 ar
  57   27   28 ar
  58   27   62 1
  59   28   29 ar
  60   28   32 1
  61   29   30 ar
  62   29   63 1
  63   30   31 ar
  64   30   64 1
  65   31   65 1
  66   32   33 2
  67   32   36 1
  68   33   34 1
  69   34   35 2
  70   35   36 1
  71   36   66 1

#	End of record

