#	Name: ASD01320091
#	Creating user name:	WinNT
#	Creation time:	15. 06. 2019 19:16

#	Modifying user name:	WinNT
#	Modification time:	15. 06. 2019 19:16

#	Program:	/corina/corina34_cracker 3.40 0067  02.08.2006

@<TRIPOS>MOLECULE
ASD01320091
  45   47    0    0    0
SMALL
NO_CHARGES


@<TRIPOS>ATOM
   1 C1             1.2695     1.1114    -0.7256 C.ar    
   2 N2             0.2584    -4.7938     1.4268 N.am    
   3 O3             1.8054     4.0904     0.8860 O.2     
   4 C4             1.1344    -0.2495    -0.5451 C.ar    
   5 N5             2.1555   -10.6276     0.7647 N.pl3   
   6 O6             0.4775     4.0558    -0.8927 O.3     
   7 C7             0.6985    -0.7567     0.6734 C.ar    
   8 O8             0.5688    -2.0971     0.8397 O.3     
   9 C9             0.3953     0.1030     1.7220 C.ar    
  10 O10            0.2142     3.5968     2.4821 O.2     
  11 C11            0.5276     1.4764     1.5532 C.ar    
  12 O12           -0.0960     1.9027     3.8818 O.3     
  13 C13            0.9689     1.9874     0.3165 C.ar    
  14 O14           -0.9701    -6.5840     0.9590 O.2     
  15 O15            1.0588   -11.1020     0.5284 O.2     
  16 O16            3.1375   -11.3477     0.7920 O.2     
  17 C17            1.1133     3.4436     0.1254 C.2     
  18 C18            0.2060     2.3963     2.6654 C.2     
  19 C19           -0.6807    -2.5992     1.0262 C.ar    
  20 C20           -0.8539    -3.9499     1.3216 C.ar    
  21 C21           -2.1317    -4.4563     1.5108 C.ar    
  22 C22           -3.2279    -3.6215     1.4060 C.ar    
  23 C23           -3.0554    -2.2812     1.1124 C.ar    
  24 C24           -1.7852    -1.7678     0.9286 C.ar    
  25 C25            0.1264    -6.1148     1.1948 C.2     
  26 C26            1.3148    -6.9933     1.2272 C.ar    
  27 C27            1.1815    -8.3618     0.9875 C.ar    
  28 C28            2.2949    -9.1761     1.0188 C.ar    
  29 C29            3.5411    -8.6390     1.2875 C.ar    
  30 C30            3.6802    -7.2830     1.5261 C.ar    
  31 C31            2.5762    -6.4569     1.4921 C.ar    
  32 H32            1.6126     1.4984    -1.6737 H       
  33 H33            1.1241    -4.4276     1.6666 H       
  34 H34            1.3684    -0.9245    -1.3551 H       
  35 H35            0.6023     5.0110    -0.9774 H       
  36 H36            0.0569    -0.2954     2.6671 H       
  37 H37           -0.2993     2.5431     4.5773 H       
  38 H38           -2.2695    -5.5028     1.7395 H       
  39 H39           -4.2221    -4.0170     1.5535 H       
  40 H40           -3.9153    -1.6328     1.0308 H       
  41 H41           -1.6538    -0.7196     0.7042 H       
  42 H42            0.2090    -8.7824     0.7783 H       
  43 H43            4.4093    -9.2809     1.3115 H       
  44 H44            4.6560    -6.8700     1.7352 H       
  45 H45            2.6866    -5.3981     1.6744 H       
@<TRIPOS>BOND
   1    1    4 ar
   2    1   13 ar
   3    1   32 1
   4    2   20 1
   5    2   25 am
   6    2   33 1
   7    3   17 2
   8    4    7 ar
   9    4   34 1
  10    5   15 2
  11    5   16 2
  12    5   28 1
  13    6   17 1
  14    6   35 1
  15    7    8 1
  16    7    9 ar
  17    8   19 1
  18    9   11 ar
  19    9   36 1
  20   10   18 2
  21   11   13 ar
  22   11   18 1
  23   12   18 1
  24   12   37 1
  25   13   17 1
  26   14   25 2
  27   19   20 ar
  28   19   24 ar
  29   20   21 ar
  30   21   22 ar
  31   21   38 1
  32   22   23 ar
  33   22   39 1
  34   23   24 ar
  35   23   40 1
  36   24   41 1
  37   25   26 1
  38   26   27 ar
  39   26   31 ar
  40   27   28 ar
  41   27   42 1
  42   28   29 ar
  43   29   30 ar
  44   29   43 1
  45   30   31 ar
  46   30   44 1
  47   31   45 1

#	End of record

