#	Name: ASD02198043
#	Creating user name:	WinNT
#	Creation time:	15. 06. 2019 20:18

#	Modifying user name:	WinNT
#	Modification time:	15. 06. 2019 20:18

#	Program:	/corina/corina34_cracker 3.40 0067  02.08.2006

@<TRIPOS>MOLECULE
ASD02198043
  40   42    0    0    0
SMALL
NO_CHARGES


@<TRIPOS>ATOM
   1 C1             0.5512     1.3799    -0.6370 C.2     
   2 C2             0.4620     0.0067    -0.5481 C.2     
   3 C3            -0.7723    -0.6822    -0.3187 C.1     
   4 S4             2.1610     1.8679    -0.9147 S.3     
   5 C5             2.7339     0.2076    -0.9135 C.2     
   6 C6             1.6811    -0.6501    -0.7024 C.2     
   7 C7             4.0734    -0.1862    -1.1009 C.2     
   8 O8             4.3896    -1.3562    -0.9654 O.2     
   9 C9             5.0956     0.8187    -1.4620 C.ar    
  10 N10            1.8182    -2.0287    -0.6478 N.pl3   
  11 N11           -0.5164     2.2403    -0.5227 N.pl3   
  12 N12           -1.7514    -1.2287    -0.1368 N.1     
  13 C13           -0.3019     3.6222    -0.5039 C.ar    
  14 C14           -1.2158     4.4762    -1.1078 C.ar    
  15 C15           -1.0022     5.8405    -1.0876 C.ar    
  16 C16            0.1223     6.3572    -0.4662 C.ar    
  17 C17            1.0350     5.5076     0.1362 C.ar    
  18 C18            0.8223     4.1431     0.1238 C.ar    
  19 C19            6.4207     0.6468    -1.0551 C.ar    
  20 C20            7.3705     1.5851    -1.3938 C.ar    
  21 C21            7.0119     2.7016    -2.1394 C.ar    
  22 C22            5.6944     2.8763    -2.5457 C.ar    
  23 C23            4.7401     1.9394    -2.2158 C.ar    
  24 F24            0.3295     7.6921    -0.4480 F       
  25 O25            7.9507     3.6242    -2.4714 O.3     
  26 C26            7.5136     4.7474    -3.2391 C.3     
  27 H27            2.6920    -2.4340    -0.7615 H       
  28 H28            1.0402    -2.5878    -0.4960 H       
  29 H29           -1.4178     1.8884    -0.4552 H       
  30 H30           -2.0926     4.0736    -1.5932 H       
  31 H31           -1.7126     6.5049    -1.5571 H       
  32 H32            1.9115     5.9127     0.6199 H       
  33 H33            1.5344     3.4809     0.5937 H       
  34 H34            6.7001    -0.2205    -0.4753 H       
  35 H35            8.3952     1.4531    -1.0793 H       
  36 H36            5.4193     3.7457    -3.1245 H       
  37 H37            3.7165     2.0757    -2.5322 H       
  38 H38            8.3603     5.4053    -3.4350 H       
  39 H39            7.0962     4.4011    -4.1845 H       
  40 H40            6.7508     5.2927    -2.6832 H       
@<TRIPOS>BOND
   1    1    2 2
   2    1    4 1
   3    1   11 1
   4    2    3 1
   5    2    6 1
   6    3   12 3
   7    4    5 1
   8    5    6 2
   9    5    7 1
  10    6   10 1
  11    7    8 2
  12    7    9 1
  13    9   19 ar
  14    9   23 ar
  15   10   27 1
  16   10   28 1
  17   11   13 1
  18   11   29 1
  19   13   14 ar
  20   13   18 ar
  21   14   15 ar
  22   14   30 1
  23   15   16 ar
  24   15   31 1
  25   16   17 ar
  26   16   24 1
  27   17   18 ar
  28   17   32 1
  29   18   33 1
  30   19   20 ar
  31   19   34 1
  32   20   21 ar
  33   20   35 1
  34   21   22 ar
  35   21   25 1
  36   22   23 ar
  37   22   36 1
  38   23   37 1
  39   25   26 1
  40   26   38 1
  41   26   39 1
  42   26   40 1

#	End of record

