#	Name: ASD01209151
#	Creating user name:	WinNT
#	Creation time:	15. 06. 2019 19:11

#	Modifying user name:	WinNT
#	Modification time:	15. 06. 2019 19:11

#	Program:	/corina/corina34_cracker 3.40 0067  02.08.2006

@<TRIPOS>MOLECULE
ASD01209151
  72   74    0    0    0
SMALL
NO_CHARGES


@<TRIPOS>ATOM
   1 O1            -0.0371     1.4724     0.0331 O.3     
   2 O2             2.1216     2.1197     1.3871 O.3     
   3 C3             0.2779     6.2728    -9.5731 C.ar    
   4 C4             1.6487     6.4466    -9.6942 C.ar    
   5 C5             2.4738     6.2762    -8.5917 C.ar    
   6 C6             1.9313     5.9326    -7.3648 C.ar    
   7 C7             0.5526     5.7569    -7.2384 C.ar    
   8 C8            -0.2738     5.9338    -8.3485 C.ar    
   9 O9            -0.5258     6.4409   -10.6561 O.3     
  10 C10           -1.9110     6.1313   -10.4904 C.3     
  11 O11            3.8164     6.4472    -8.7161 O.3     
  12 C12            4.3081     6.8016   -10.0102 C.3     
  13 C13            5.8071     6.9473    -9.9554 C.2     
  14 C14           -0.0310     5.3896    -5.9308 C.2     
  15 N15            0.7686     5.2240    -4.8586 N.am    
  16 O16           -1.2321     5.2369    -5.8227 O.2     
  17 C17            0.2203     4.8790    -3.6300 C.2     
  18 P18            1.3061     2.3600     0.0199 P.3     
  19 O19            2.1471     1.9651    -1.1321 O.2     
  20 C20            6.5560     7.3101   -11.1692 C.ar    
  21 C21            7.9471     7.4463   -11.1224 C.ar    
  22 C22            0.8676     4.1237    -0.1242 C.3     
  23 N23            0.8974     4.6962    -2.5397 N.2     
  24 S24           -1.4466     4.6406    -3.3338 S.3     
  25 C25           -1.1051     4.2768    -1.6443 C.2     
  26 C26            0.2130     4.3711    -1.4589 C.2     
  27 C27           -0.0257     0.0435     0.0320 C.3     
  28 C28           -1.4640    -0.4780     0.0464 C.3     
  29 C29            2.6963     0.8597     1.7393 C.3     
  30 C30            3.3959     0.9793     3.0947 C.3     
  31 C31           -2.5191     5.7719   -11.8476 C.3     
  32 O32           -2.4872     6.9169   -12.7021 O.3     
  33 C33           -2.6391     7.3457    -9.9108 C.3     
  34 C34            5.8808     7.5149   -12.3767 C.ar    
  35 C35            6.5896     7.8546   -13.5096 C.ar    
  36 C36            7.9657     7.9926   -13.4540 C.ar    
  37 C37            8.6416     7.7865   -12.2639 C.ar    
  38 C38           -3.0349     6.6875   -14.0019 C.3     
  39 O39            6.3961     6.7656    -8.9112 O.2     
  40 H40            2.0751     6.7149   -10.6495 H       
  41 H41            2.5743     5.7995    -6.5074 H       
  42 H42           -1.3413     5.7991    -8.2549 H       
  43 H43           -2.0156     5.2861    -9.8101 H       
  44 H44            4.0448     6.0220   -10.7249 H       
  45 H45            3.8624     7.7461   -10.3221 H       
  46 H46            1.7271     5.3459    -4.9449 H       
  47 H47            8.4759     7.2857   -10.1945 H       
  48 H48            0.1767     4.3927     0.6748 H       
  49 H49            1.7698     4.7301    -0.0439 H       
  50 H50           -1.8354     4.0250    -0.8895 H       
  51 H51            0.4818    -0.3151    -0.8635 H       
  52 H52            0.5001    -0.3164     0.9163 H       
  53 H53           -1.9716    -0.1194     0.9419 H       
  54 H54           -1.9899    -0.1181    -0.8380 H       
  55 H55           -1.4554    -1.5680     0.0456 H       
  56 H56            1.9107     0.1066     1.8011 H       
  57 H57            3.4218     0.5665     0.9806 H       
  58 H58            2.6703     1.2725     3.8535 H       
  59 H59            3.8343     0.0182     3.3634 H       
  60 H60            4.1815     1.7324     3.0330 H       
  61 H61           -1.9445     4.9642   -12.3008 H       
  62 H62           -3.5514     5.4503   -11.7094 H       
  63 H63           -2.5346     8.1909   -10.5911 H       
  64 H64           -3.6957     7.1096    -9.7844 H       
  65 H65           -2.2059     7.6017    -8.9439 H       
  66 H66            4.8072     7.4068   -12.4218 H       
  67 H67            6.0697     8.0131   -14.4429 H       
  68 H68            8.5153     8.2582   -14.3449 H       
  69 H69            9.7154     7.8964   -12.2284 H       
  70 H70           -2.9737     7.6039   -14.5888 H       
  71 H71           -2.4710     5.8987   -14.4998 H       
  72 H72           -4.0779     6.3849   -13.9084 H       
@<TRIPOS>BOND
   1    1   27 1
   2    1   18 1
   3    2   29 1
   4    2   18 1
   5    3    4 ar
   6    3    9 1
   7    3    8 ar
   8    4    5 ar
   9    4   40 1
  10    5    6 ar
  11    5   11 1
  12    6    7 ar
  13    6   41 1
  14    7    8 ar
  15    7   14 1
  16    8   42 1
  17    9   10 1
  18   10   31 1
  19   10   33 1
  20   10   43 1
  21   11   12 1
  22   12   13 1
  23   12   44 1
  24   12   45 1
  25   13   20 1
  26   13   39 2
  27   14   15 am
  28   14   16 2
  29   15   17 1
  30   15   46 1
  31   17   23 2
  32   17   24 1
  33   18   19 2
  34   18   22 1
  35   20   21 ar
  36   20   34 ar
  37   21   37 ar
  38   21   47 1
  39   22   26 1
  40   22   48 1
  41   22   49 1
  42   23   26 1
  43   24   25 1
  44   25   26 2
  45   25   50 1
  46   27   28 1
  47   27   51 1
  48   27   52 1
  49   28   53 1
  50   28   54 1
  51   28   55 1
  52   29   30 1
  53   29   56 1
  54   29   57 1
  55   30   58 1
  56   30   59 1
  57   30   60 1
  58   31   32 1
  59   31   61 1
  60   31   62 1
  61   32   38 1
  62   33   63 1
  63   33   64 1
  64   33   65 1
  65   34   35 ar
  66   34   66 1
  67   35   36 ar
  68   35   67 1
  69   36   37 ar
  70   36   68 1
  71   37   69 1
  72   38   70 1
  73   38   71 1
  74   38   72 1

#	End of record

