#	Name: ASD03430510
#	Creating user name:	WinNT
#	Creation time:	15. 06. 2019 20:41

#	Modifying user name:	WinNT
#	Modification time:	15. 06. 2019 20:41

#	Program:	/corina/corina34_cracker 3.40 0067  02.08.2006

@<TRIPOS>MOLECULE
ASD03430510
  32   35    0    0    0
SMALL
NO_CHARGES


@<TRIPOS>ATOM
   1 N1            -0.0161     1.3395     0.0094 N.am    
   2 C2             0.0021    -0.0041     0.0020 C.2     
   3 C3             1.4549    -0.4297    -0.0141 C.3     
   4 C4             2.2195     0.8739    -0.0144 C.ar    
   5 C5             3.5650     1.1711    -0.0261 C.ar    
   6 C6             3.9799     2.4926    -0.0233 C.ar    
   7 C7             3.0412     3.5079    -0.0089 C.ar    
   8 C8             1.6938     3.2124     0.0032 C.ar    
   9 C9             1.2679     1.8853     0.0001 C.ar    
  10 O10           -0.9637    -0.7378     0.0076 O.2     
  11 O11            2.7537    -3.6326     4.4230 O.3     
  12 C12            3.5464    -4.6050     3.7166 C.3     
  13 O13            3.0504    -4.5353     2.3667 O.3     
  14 C14            2.5683    -3.2655     2.2206 C.ar    
  15 C15            2.3861    -2.7110     3.4855 C.ar    
  16 C16            2.2661    -2.5235     1.0911 C.ar    
  17 C17            1.7831    -1.2342     1.2172 C.ar    
  18 C18            1.6008    -0.6802     2.4751 C.ar    
  19 C19            1.9024    -1.4193     3.6093 C.ar    
  20 O20            1.1265     0.5884     2.5968 O.3     
  21 O21            1.7437    -1.1799    -1.1956 O.3     
  22 Cl22           4.7380    -0.1085    -0.0435 Cl      
  23 H23           -0.8287     1.8692     0.0162 H       
  24 H24            5.0336     2.7294    -0.0321 H       
  25 H25            3.3648     4.5383    -0.0068 H       
  26 H26            0.9672     4.0113     0.0151 H       
  27 H27            4.6022    -4.3364     3.7510 H       
  28 H28            3.3899    -5.6008     4.1312 H       
  29 H29            2.4071    -2.9530     0.1102 H       
  30 H30            1.7600    -0.9875     4.5890 H       
  31 H31            0.1625     0.6445     2.6490 H       
  32 H32            1.2347    -1.9981    -1.2762 H       
@<TRIPOS>BOND
   1    1    2 am
   2    1    9 1
   3    1   23 1
   4    2    3 1
   5    2   10 2
   6    3    4 1
   7    3   17 1
   8    3   21 1
   9    4    5 ar
  10    4    9 ar
  11    5    6 ar
  12    5   22 1
  13    6    7 ar
  14    6   24 1
  15    7    8 ar
  16    7   25 1
  17    8    9 ar
  18    8   26 1
  19   11   12 1
  20   11   15 1
  21   12   13 1
  22   12   27 1
  23   12   28 1
  24   13   14 1
  25   14   15 ar
  26   14   16 ar
  27   15   19 ar
  28   16   17 ar
  29   16   29 1
  30   17   18 ar
  31   18   19 ar
  32   18   20 1
  33   19   30 1
  34   20   31 1
  35   21   32 1

#	End of record

