#	Name: ASD01811596
#	Creating user name:	WinNT
#	Creation time:	15. 06. 2019 19:27

#	Modifying user name:	WinNT
#	Modification time:	15. 06. 2019 19:27

#	Program:	/corina/corina34_cracker 3.40 0067  02.08.2006

@<TRIPOS>MOLECULE
ASD01811596
  56   59    0    0    0
SMALL
NO_CHARGES


@<TRIPOS>ATOM
   1 C1            -0.2935     0.7999     1.0876 C.ar    
   2 C2             0.0052    -0.0486     0.0196 C.ar    
   3 C3            -0.8959    -0.2051    -1.0148 C.ar    
   4 C4            -2.0974     0.4753    -1.0010 C.ar    
   5 C5            -2.4085     1.3270     0.0610 C.ar    
   6 C6            -1.5055     1.4851     1.1107 C.ar    
   7 C7            -3.6954     2.0550     0.0746 C.2     
   8 O8            -4.7407     1.4437    -0.0311 O.2     
   9 N9            -3.7095     3.3965     0.2041 N.am    
  10 C10           -4.9727     4.1428     0.1267 C.3     
  11 C11           -4.8314     5.2430    -0.9299 C.3     
  12 C12           -3.6107     6.1058    -0.6021 C.3     
  13 C13           -2.3488     5.2405    -0.6341 C.3     
  14 C14           -2.4626     4.1397     0.4314 C.3     
  15 C15           -3.4882     7.2100    -1.6203 C.ar    
  16 C16           -3.5347     8.5313    -1.2123 C.ar    
  17 C17           -3.3240     6.8978    -2.9582 C.ar    
  18 C18           -3.2108     7.9036    -3.8956 C.ar    
  19 C19           -3.2622     9.2391    -3.4914 C.ar    
  20 C20           -3.4228     9.5470    -2.1390 C.ar    
  21 C21           -3.1454    10.2884    -4.4590 C.1     
  22 N22           -3.0527    11.1207    -5.2265 N.1     
  23 C23            0.6731     0.9659     2.1954 C.2     
  24 N24            0.5231     1.7264     3.2568 N.2     
  25 N25            1.5592     1.6276     4.0112 N.2     
  26 C26            2.4235     0.8052     3.4796 C.2     
  27 N27            1.8907     0.3520     2.3124 N.pl3   
  28 C28            3.7625     0.4236     4.0562 C.3     
  29 C29           -3.0746     0.2989    -2.1345 C.3     
  30 O30            4.4133    -0.4984     3.1797 O.3     
  31 C31            5.6981    -0.9263     3.6360 C.3     
  32 H32            0.9433    -0.5834     0.0025 H       
  33 H33           -0.6597    -0.8623    -1.8386 H       
  34 H34           -1.7413     2.1426     1.9345 H       
  35 H35           -5.7798     3.4668    -0.1554 H       
  36 H36           -5.1915     4.5923     1.0953 H       
  37 H37           -4.7029     4.7894    -1.9126 H       
  38 H38           -5.7268     5.8646    -0.9299 H       
  39 H39           -3.7285     6.5394     0.3910 H       
  40 H40           -2.2437     4.7868    -1.6196 H       
  41 H41           -1.4772     5.8602    -0.4235 H       
  42 H42           -2.4758     4.5913     1.4234 H       
  43 H43           -1.6137     3.4611     0.3479 H       
  44 H44           -3.6593     8.7680    -0.1659 H       
  45 H45           -3.2841     5.8644    -3.2693 H       
  46 H46           -3.0823     7.6585    -4.9395 H       
  47 H47           -3.4637    10.5779    -1.8197 H       
  48 H48            2.2933    -0.2728     1.6890 H       
  49 H49            4.3783     1.3163     4.1667 H       
  50 H50            3.6189    -0.0416     5.0314 H       
  51 H51           -3.6912    -0.5806    -1.9490 H       
  52 H52           -3.7115     1.1806    -2.2058 H       
  53 H53           -2.5280     0.1690    -3.0686 H       
  54 H54            6.1257    -1.6239     2.9159 H       
  55 H55            6.3540    -0.0617     3.7378 H       
  56 H56            5.5947    -1.4196     4.6025 H       
@<TRIPOS>BOND
   1    1    2 ar
   2    1   23 1
   3    1    6 ar
   4    2    3 ar
   5    2   32 1
   6    3    4 ar
   7    3   33 1
   8    4    5 ar
   9    4   29 1
  10    5    6 ar
  11    5    7 1
  12    6   34 1
  13    7    8 2
  14    7    9 am
  15    9   10 1
  16    9   14 1
  17   10   11 1
  18   10   35 1
  19   10   36 1
  20   11   12 1
  21   11   37 1
  22   11   38 1
  23   12   13 1
  24   12   15 1
  25   12   39 1
  26   13   14 1
  27   13   40 1
  28   13   41 1
  29   14   42 1
  30   14   43 1
  31   15   16 ar
  32   15   17 ar
  33   16   20 ar
  34   16   44 1
  35   17   18 ar
  36   17   45 1
  37   18   19 ar
  38   18   46 1
  39   19   20 ar
  40   19   21 1
  41   20   47 1
  42   21   22 3
  43   23   24 2
  44   23   27 1
  45   24   25 1
  46   25   26 2
  47   26   27 1
  48   26   28 1
  49   27   48 1
  50   28   30 1
  51   28   49 1
  52   28   50 1
  53   29   51 1
  54   29   52 1
  55   29   53 1
  56   30   31 1
  57   31   54 1
  58   31   55 1
  59   31   56 1

#	End of record

