#	Name: ASD01150414
#	Creating user name:	WinNT
#	Creation time:	15. 06. 2019 19:04

#	Modifying user name:	WinNT
#	Modification time:	15. 06. 2019 19:04

#	Program:	/corina/corina34_cracker 3.40 0067  02.08.2006

@<TRIPOS>MOLECULE
ASD01150414
  54   56    0    0    0
SMALL
NO_CHARGES


@<TRIPOS>ATOM
   1 C1            -0.0774     2.3723    -0.4136 C.ar    
   2 C2            -0.1846     0.9968    -0.3477 C.ar    
   3 C3             0.1935     0.2188    -1.4253 C.ar    
   4 C4             0.6829     0.8181    -2.5789 C.ar    
   5 C5             0.7915     2.1997    -2.6487 C.ar    
   6 C6             0.4110     2.9782    -1.5649 C.ar    
   7 N7             0.5190     4.3721    -1.6312 N.am    
   8 C8            -0.5337     5.1362    -1.2897 C.2     
   9 N9            -0.4616     6.4795    -1.3423 N.am    
  10 C10            0.6786     7.0793    -1.7425 C.2     
  11 C11            1.8286     6.2512    -2.1157 C.2     
  12 N12            1.7232     4.9526    -2.0466 N.2     
  13 O13            0.7512     8.2933    -1.7934 O.2     
  14 C14           -1.6220     7.2903    -0.9652 C.3     
  15 O15           -1.5664     4.6058    -0.9284 O.2     
  16 C16           -1.5631     7.5964     0.5092 C.ar    
  17 C17           -0.9145     8.7342     0.9525 C.ar    
  18 C18           -0.8592     9.0171     2.3035 C.ar    
  19 C19           -1.4551     8.1584     3.2158 C.ar    
  20 C20           -2.1053     7.0174     2.7685 C.ar    
  21 C21           -2.1627     6.7420     1.4160 C.ar    
  22 N22            1.0664     0.0295    -3.6693 N.am    
  23 C23            0.3974    -1.1070    -3.9474 C.2     
  24 O24           -0.5915    -1.4002    -3.3093 O.2     
  25 C25            0.8782    -2.0135    -5.0511 C.3     
  26 C26            3.1163     6.8905    -2.5673 C.3     
  27 O27           -1.4016     8.4342     4.5454 O.3     
  28 C28           -0.6044     9.5509     4.9448 C.3     
  29 C29           -1.4366    10.8313     4.8510 C.3     
  30 C30           -0.1348     9.3524     6.3873 C.3     
  31 H31           -0.3776     2.9778     0.4288 H       
  32 H32           -0.5645     0.5283     0.5482 H       
  33 H33            0.1087    -0.8565    -1.3704 H       
  34 H34            1.1721     2.6681    -3.5443 H       
  35 H35           -1.6132     8.2222    -1.5304 H       
  36 H36           -2.5368     6.7402    -1.1858 H       
  37 H37           -0.4505     9.4021     0.2419 H       
  38 H38           -0.3521     9.9057     2.6493 H       
  39 H39           -2.5700     6.3474     3.4767 H       
  40 H40           -2.6687     5.8539     1.0672 H       
  41 H41            1.8137     0.3008    -4.2250 H       
  42 H42            1.5797    -2.7415    -4.6436 H       
  43 H43            0.0273    -2.5348    -5.4896 H       
  44 H44            1.3754    -1.4198    -5.8182 H       
  45 H45            3.7576     7.0656    -1.7035 H       
  46 H46            3.6242     6.2284    -3.2686 H       
  47 H47            2.8986     7.8399    -3.0566 H       
  48 H48            0.2622     9.6319     4.2885 H       
  49 H49           -0.8285    11.6831     5.1556 H       
  50 H50           -1.7712    10.9727     3.8233 H       
  51 H51           -2.3031    10.7503     5.5073 H       
  52 H52            0.4582     8.4402     6.4541 H       
  53 H53            0.4734    10.2041     6.6920 H       
  54 H54           -1.0013     9.2714     7.0436 H       
@<TRIPOS>BOND
   1    1    2 ar
   2    1    6 ar
   3    1   31 1
   4    2    3 ar
   5    2   32 1
   6    3    4 ar
   7    3   33 1
   8    4    5 ar
   9    4   22 1
  10    5    6 ar
  11    5   34 1
  12    6    7 1
  13    7    8 am
  14    7   12 1
  15    8    9 am
  16    8   15 2
  17    9   10 am
  18    9   14 1
  19   10   11 1
  20   10   13 2
  21   11   12 2
  22   11   26 1
  23   14   16 1
  24   14   35 1
  25   14   36 1
  26   16   17 ar
  27   16   21 ar
  28   17   18 ar
  29   17   37 1
  30   18   19 ar
  31   18   38 1
  32   19   20 ar
  33   19   27 1
  34   20   21 ar
  35   20   39 1
  36   21   40 1
  37   22   23 am
  38   22   41 1
  39   23   24 2
  40   23   25 1
  41   25   42 1
  42   25   43 1
  43   25   44 1
  44   26   45 1
  45   26   46 1
  46   26   47 1
  47   27   28 1
  48   28   29 1
  49   28   30 1
  50   28   48 1
  51   29   49 1
  52   29   50 1
  53   29   51 1
  54   30   52 1
  55   30   53 1
  56   30   54 1

#	End of record

