#	Name: ASD01820099
#	Creating user name:	WinNT
#	Creation time:	15. 06. 2019 19:36

#	Modifying user name:	WinNT
#	Modification time:	15. 06. 2019 19:36

#	Program:	/corina/corina34_cracker 3.40 0067  02.08.2006

@<TRIPOS>MOLECULE
ASD01820099
  97  101    0    0    0
SMALL
NO_CHARGES


@<TRIPOS>ATOM
   1 C1            -0.0165     1.3646     0.0095 C.2     
   2 N2             0.0021    -0.0041     0.0020 N.pl3   
   3 C3             1.2973    -0.3859    -0.0124 C.2     
   4 N4             2.0482     0.6814    -0.0138 N.2     
   5 C5             1.2671     1.7717    -0.0005 C.2     
   6 C6            -1.1652    -0.8893     0.0084 C.3     
   7 C7            -1.5853    -1.1898    -1.4318 C.3     
   8 C8            -2.8044    -2.1143    -1.4251 C.3     
   9 C9            -3.2245    -2.4147    -2.8653 C.3     
  10 C10           -4.4435    -3.3393    -2.8586 C.3     
  11 C11           -4.8636    -3.6397    -4.2988 C.3     
  12 C12           -6.0827    -4.5643    -4.2921 C.3     
  13 C13           -6.5801    -4.7655    -5.7262 C.3     
  14 C14           -7.7611    -5.7388    -5.7195 C.3     
  15 N15           -7.3364    -7.0218    -5.1450 N.3     
  16 C16           -6.8991    -6.8612    -3.7524 C.3     
  17 C17           -5.6923    -5.9215    -3.7004 C.3     
  18 C18            1.7427     3.2017     0.0026 C.3     
  19 C19            2.7000     3.4183     1.1763 C.3     
  20 C20            3.1755     4.8483     1.1795 C.2     
  21 N21            4.0325     5.2714     2.1297 N.am    
  22 O22            2.7870     5.6184     0.3269 O.2     
  23 C23            4.4948     6.6615     2.1328 C.3     
  24 C24            5.4521     6.8781     3.3065 C.3     
  25 N25            5.9144     8.2682     3.3096 N.am    
  26 C26            6.7714     8.6913     4.2598 C.2     
  27 C27            7.2469    10.1213     4.2629 C.3     
  28 O28            7.1599     7.9212     5.1124 O.2     
  29 C29            8.2042    10.3379     5.4367 C.3     
  30 C30           -8.4049    -8.0245    -5.2490 C.3     
  31 C31           -7.8593    -9.3800    -4.8803 C.2     
  32 N32           -8.6651   -10.4601    -4.9040 N.am    
  33 O33           -6.6948    -9.4991    -4.5623 O.2     
  34 C34           -8.1828   -12.7718    -5.4817 C.ar    
  35 C35          -10.4985   -11.0410    -6.3795 C.ar    
  36 N36           -8.5951   -12.5766    -6.7976 N.am    
  37 C37           -9.5989   -11.8414    -7.2198 C.2     
  38 C38          -11.8594   -10.9657    -6.6880 C.ar    
  39 C39          -12.6955   -10.1750    -5.9290 C.ar    
  40 C40          -12.1929    -9.4497    -4.8617 C.ar    
  41 C41          -10.8539    -9.5304    -4.5327 C.ar    
  42 C42          -10.0027   -10.3392    -5.2727 C.ar    
  43 C43           -7.2380   -13.1917    -2.9053 C.ar    
  44 C44           -7.2926   -14.2427    -3.8021 C.ar    
  45 C45           -7.7612   -14.0361    -5.0846 C.ar    
  46 C46           -8.1714   -11.7268    -4.5637 C.ar    
  47 C47           -7.6767   -11.9373    -3.2832 C.ar    
  48 O48           -9.8003   -11.8225    -8.4186 O.2     
  49 H49           -0.8923     1.9965     0.0173 H       
  50 H50            1.6529    -1.4057    -0.0210 H       
  51 H51           -0.9120    -1.8207     0.5149 H       
  52 H52           -1.9875    -0.4025     0.5327 H       
  53 H53           -1.8385    -0.2584    -1.9382 H       
  54 H54           -0.7630    -1.6766    -1.9561 H       
  55 H55           -2.5512    -3.0457    -0.9187 H       
  56 H56           -3.6267    -1.6275    -0.9008 H       
  57 H57           -3.4776    -1.4833    -3.3717 H       
  58 H58           -2.4022    -2.9015    -3.3896 H       
  59 H59           -4.1904    -4.2707    -2.3522 H       
  60 H60           -5.2659    -2.8525    -2.3343 H       
  61 H61           -5.1168    -2.7083    -4.8052 H       
  62 H62           -4.0413    -4.1265    -4.8231 H       
  63 H63           -6.8750    -4.1181    -3.6910 H       
  64 H64           -6.8997    -3.8083    -6.1382 H       
  65 H65           -5.7750    -5.1745    -6.3366 H       
  66 H66           -8.5711    -5.3229    -5.1202 H       
  67 H67           -8.1086    -5.8953    -6.7407 H       
  68 H68           -7.7130    -6.4401    -3.1624 H       
  69 H69           -6.6204    -7.8330    -3.3449 H       
  70 H70           -4.8732    -6.3487    -4.2790 H       
  71 H71           -5.3777    -5.7902    -2.6652 H       
  72 H72            2.2605     3.4145    -0.9326 H       
  73 H73            0.8868     3.8690     0.1039 H       
  74 H74            2.1821     3.2055     2.1116 H       
  75 H75            3.5559     2.7510     1.0750 H       
  76 H76            4.3432     4.6554     2.8116 H       
  77 H77            5.0127     6.8743     1.1975 H       
  78 H78            3.6389     7.3288     2.2341 H       
  79 H79            4.9342     6.6653     4.2417 H       
  80 H80            6.3080     6.2108     3.2052 H       
  81 H81            5.6036     8.8842     2.6277 H       
  82 H82            7.7648    10.3340     3.3277 H       
  83 H83            6.3910    10.7886     4.3643 H       
  84 H84            9.0601     9.6706     5.3353 H       
  85 H85            8.5482    11.3722     5.4389 H       
  86 H86            7.6863    10.1251     6.3719 H       
  87 H87           -9.2164    -7.7626    -4.5700 H       
  88 H88           -8.7809    -8.0501    -6.2717 H       
  89 H89           -8.0831   -13.0357    -7.4817 H       
  90 H90          -12.2561   -11.5268    -7.5213 H       
  91 H91          -13.7473   -10.1207    -6.1680 H       
  92 H92          -12.8511    -8.8179    -4.2838 H       
  93 H93          -10.4686    -8.9631    -3.6983 H       
  94 H94           -6.8519   -13.3513    -1.9094 H       
  95 H95           -6.9684   -15.2273    -3.4989 H       
  96 H96           -7.8008   -14.8599    -5.7819 H       
  97 H97           -7.6352   -11.1181    -2.5807 H       
@<TRIPOS>BOND
   1    1    2 1
   2    1    5 2
   3    1   49 1
   4    2    3 1
   5    2    6 1
   6    3    4 2
   7    3   50 1
   8    4    5 1
   9    5   18 1
  10    6    7 1
  11    6   51 1
  12    6   52 1
  13    7    8 1
  14    7   53 1
  15    7   54 1
  16    8    9 1
  17    8   55 1
  18    8   56 1
  19    9   10 1
  20    9   57 1
  21    9   58 1
  22   10   11 1
  23   10   59 1
  24   10   60 1
  25   11   12 1
  26   11   61 1
  27   11   62 1
  28   12   13 1
  29   12   17 1
  30   12   63 1
  31   13   14 1
  32   13   64 1
  33   13   65 1
  34   14   15 1
  35   14   66 1
  36   14   67 1
  37   15   16 1
  38   15   30 1
  39   16   17 1
  40   16   68 1
  41   16   69 1
  42   17   70 1
  43   17   71 1
  44   18   19 1
  45   18   72 1
  46   18   73 1
  47   19   20 1
  48   19   74 1
  49   19   75 1
  50   20   21 am
  51   20   22 2
  52   21   23 1
  53   21   76 1
  54   23   24 1
  55   23   77 1
  56   23   78 1
  57   24   25 1
  58   24   79 1
  59   24   80 1
  60   25   26 am
  61   25   81 1
  62   26   27 1
  63   26   28 2
  64   27   29 1
  65   27   82 1
  66   27   83 1
  67   29   84 1
  68   29   85 1
  69   29   86 1
  70   30   31 1
  71   30   87 1
  72   30   88 1
  73   31   32 am
  74   31   33 2
  75   32   46 1
  76   32   42 1
  77   34   36 1
  78   34   46 ar
  79   34   45 ar
  80   35   37 1
  81   35   38 ar
  82   35   42 ar
  83   36   37 am
  84   36   89 1
  85   37   48 2
  86   38   39 ar
  87   38   90 1
  88   39   40 ar
  89   39   91 1
  90   40   41 ar
  91   40   92 1
  92   41   42 ar
  93   41   93 1
  94   43   44 ar
  95   43   47 ar
  96   43   94 1
  97   44   45 ar
  98   44   95 1
  99   45   96 1
 100   46   47 ar
 101   47   97 1

#	End of record

