#	Name: ASD06590071
#	Creating user name:	WinNT
#	Creation time:	15. 06. 2019 21:06

#	Modifying user name:	WinNT
#	Modification time:	15. 06. 2019 21:06

#	Program:	/corina/corina34_cracker 3.40 0067  02.08.2006

@<TRIPOS>MOLECULE
ASD06590071
 303  303    0    0    0
SMALL
NO_CHARGES


@<TRIPOS>ATOM
   1 C1            -0.2375     8.9565     8.4387 C.2     
   2 O2             0.2418     9.1295     7.3381 O.2     
   3 N3             1.8007     9.9192     9.3377 N.am    
   4 C4             0.4102     9.5786     9.6489 C.3     
   5 C5            -0.3507    10.8474    10.0389 C.3     
   6 C6             0.2905    11.4643    11.2836 C.3     
   7 O7            -0.2978    11.7847     8.9616 O.3     
   8 C8            -3.5251     8.0556     7.5093 C.2     
   9 O9            -3.9377     8.6441     8.4862 O.2     
  10 N10           -1.3524     8.2123     8.5788 N.am    
  11 C11           -2.0600     7.7226     7.3932 C.3     
  12 C12           -1.8886     6.2059     7.2872 C.3     
  13 C13           -0.4287     5.8765     7.1102 C.2     
  14 O14            0.3983     6.7636     7.1174 O.2     
  15 N15           -0.0421     4.5962     6.9438 N.am    
  16 C16           -6.6043     7.0523     5.8136 C.2     
  17 O17           -6.0421     6.1761     5.1914 O.2     
  18 N18           -4.3770     7.6995     6.5275 N.am    
  19 C19           -5.8013     8.0233     6.6404 C.3     
  20 C20           -6.0426     9.4464     6.1330 C.3     
  21 C21          -10.1927     6.5466     5.0781 C.2     
  22 O22          -10.5498     7.4805     5.7646 O.2     
  23 N23           -7.9470     7.1575     5.7657 N.am    
  24 C24           -8.7276     6.2136     4.9620 C.3     
  25 C25          -13.3497     4.8950     4.2602 C.2     
  26 O26          -12.7980     3.8472     3.9981 O.2     
  27 N27          -11.1063     5.8067     4.4191 N.am    
  28 C28          -12.5306     6.1305     4.5319 C.3     
  29 C29          -12.8895     7.2144     3.5136 C.3     
  30 C30          -12.1514     8.5080     3.8641 C.3     
  31 C31          -12.5102     9.5919     2.8457 C.3     
  32 N32          -11.8035    10.8305     3.1813 N.pl3   
  33 C33          -11.9711    11.9505     2.4018 C.2     
  34 N34          -12.7589    11.9104     1.3642 N.2     
  35 N35          -11.3079    13.1128     2.7168 N.pl3   
  36 C36          -16.8598     4.1550     3.5570 C.2     
  37 O37          -17.1421     5.3288     3.4417 O.2     
  38 N38          -14.6952     4.9544     4.3085 N.am    
  39 C39          -15.4915     3.7534     4.0444 C.3     
  40 C40          -15.6276     2.9384     5.3320 C.3     
  41 O41          -16.3777     3.6857     6.2917 O.3     
  42 C42          -20.0216     3.9472     3.7734 C.2     
  43 O43          -19.6662     3.8829     4.9312 O.2     
  44 N44          -17.7698     3.2096     3.2493 N.am    
  45 C45          -19.0586     3.5949     2.6690 C.3     
  46 C46          -19.6209     2.4276     1.8553 C.3     
  47 C47          -18.7125     2.1467     0.6861 C.2     
  48 O48          -17.7754     2.8753     0.4604 O.2     
  49 O49          -18.9445     1.0872    -0.1047 O.3     
  50 C50          -23.6270     4.4747     4.0656 C.2     
  51 O51          -23.8322     4.0834     2.9361 O.2     
  52 N52          -21.2776     4.3338     3.4745 N.am    
  53 C53          -22.2137     4.6763     4.5481 C.3     
  54 C54          -22.0158     6.1393     4.9498 C.3     
  55 C55          -20.5499     6.3724     5.3211 C.3     
  56 O56          -22.3703     6.9862     3.8547 O.3     
  57 C57          -26.9686     5.4142     5.2118 C.2     
  58 O58          -26.5283     6.1349     6.0822 O.2     
  59 N59          -24.6631     4.7292     4.8892 N.am    
  60 C60          -26.0370     4.5332     4.4201 C.3     
  61 C61          -26.4365     3.0684     4.6094 C.3     
  62 C62          -30.5813     5.6627     5.7117 C.2     
  63 O63          -30.7909     4.6252     5.1194 O.2     
  64 N64          -28.2912     5.4013     4.9527 N.am    
  65 C65          -29.1969     6.2578     5.7224 C.3     
  66 C66          -29.2364     7.6525     5.0946 C.3     
  67 C67          -27.8586     8.3064     5.2176 C.3     
  68 C68          -27.8976     9.6801     4.5992 C.2     
  69 O69          -28.9260    10.0953     4.1084 O.2     
  70 N70          -26.7895    10.4474     4.5916 N.am    
  71 C71          -33.9496     6.7949     6.5695 C.2     
  72 O72          -33.5860     7.9421     6.7199 O.2     
  73 N73          -31.5866     6.2833     6.3602 N.am    
  74 C74          -32.9325     5.7048     6.3498 C.3     
  75 C75          -33.0496     4.6655     7.4666 C.3     
  76 C76          -32.1047     3.4974     7.1773 C.3     
  77 C77          -32.2199     2.4738     8.2773 C.2     
  78 O78          -32.9827     2.6602     9.2016 O.2     
  79 N79          -31.4753     1.3512     8.2339 N.am    
  80 C80          -37.5051     6.9610     7.4025 C.2     
  81 O81          -37.5663     5.7700     7.6230 O.2     
  82 N82          -35.2632     6.4950     6.5988 N.am    
  83 C83          -36.2520     7.5547     6.8124 C.3     
  84 C84          -36.5836     8.2198     5.4750 C.3     
  85 C85          -35.3585     8.9187     4.9441 C.ar    
  86 C86          -34.4770     8.2387     4.1242 C.ar    
  87 C87          -33.3530     8.8770     3.6366 C.ar    
  88 C88          -33.1093    10.2014     3.9699 C.ar    
  89 O89          -32.0046    10.8316     3.4912 O.3     
  90 C90          -33.9956    10.8816     4.7924 C.ar    
  91 C91          -35.1209    10.2404     5.2732 C.ar    
  92 C92          -40.9539     8.0549     7.9241 C.2     
  93 O93          -40.7918     9.0636     7.2705 O.2     
  94 N94          -38.5578     7.7537     7.6853 N.am    
  95 C95          -39.7760     7.1766     8.2590 C.3     
  96 C96          -39.6278     7.0798     9.7787 C.3     
  97 C97          -38.5116     6.0907    10.1203 C.3     
  98 C98          -38.3634     5.9939    11.6400 C.3     
  99 N99          -37.2946     5.0468    11.9671 N.pl3   
 100 C100         -36.9778     4.7947    13.2809 C.2     
 101 N101         -36.0269     3.9520    13.5719 N.2     
 102 N102         -37.6641     5.4313    14.2879 N.pl3   
 103 C103         -44.4155     8.3753     9.0545 C.2     
 104 O104         -44.2474     7.5976     9.9698 O.2     
 105 N105         -42.1876     7.7194     8.3508 N.am    
 106 C106         -43.3326     8.5733     8.0253 C.3     
 107 C107         -43.8696     8.2008     6.6419 C.3     
 108 C108         -42.8130     8.5191     5.5820 C.3     
 109 C109         -43.3500     8.1466     4.1986 C.3     
 110 C110         -42.2934     8.4650     3.1388 C.3     
 111 N111         -42.8089     8.1073     1.8105 N.3     
 112 C112         -47.9599     9.2183     9.3547 C.2     
 113 O113         -48.0263     9.5905     8.2023 O.2     
 114 N114         -45.5709     9.0625     8.9577 N.am    
 115 C115         -46.6236     8.8701     9.9582 C.3     
 116 C116         -46.3556     9.7765    11.1613 C.3     
 117 C117         -45.0597     9.3419    11.8487 C.3     
 118 C118         -44.7258    10.3226    12.9745 C.3     
 119 C119         -45.2372     7.9382    12.4310 C.3     
 120 C120         -50.6121    10.9390     9.6246 C.2     
 121 O121         -49.7779    11.6421    10.1438 O.2     
 122 N122         -49.0811     9.1160    10.0956 N.am    
 123 C123         -50.3801     9.4545     9.5089 C.3     
 124 C124         -51.4869     8.7057    10.2540 C.3     
 125 C125         -51.3227     7.2007    10.0329 C.3     
 126 C126         -52.3518     6.4459    10.8768 C.3     
 127 C127         -51.5395     6.8760     8.5536 C.3     
 128 O128         -51.7454    11.4801     9.1508 O.3     
 129 C129           2.7110    10.0056    10.3278 C.2     
 130 O130           2.3792     9.8014    11.4763 O.2     
 131 C131          20.0375    13.0683    16.7778 C.3     
 132 C132          18.5853    12.7126    17.1028 C.3     
 133 C133          17.7666    12.6809    15.8107 C.3     
 134 C134          16.3145    12.3251    16.1356 C.3     
 135 C135          15.4957    12.2934    14.8435 C.3     
 136 C136          14.0436    11.9376    15.1685 C.3     
 137 C137          13.2249    11.9059    13.8763 C.3     
 138 C138          11.7727    11.5502    14.2013 C.3     
 139 C139          10.9540    11.5184    12.9092 C.3     
 140 C140           9.5018    11.1627    13.2341 C.3     
 141 C141           8.6831    11.1310    11.9420 C.3     
 142 C142           7.2310    10.7752    12.2670 C.3     
 143 C143           6.4122    10.7435    10.9749 C.3     
 144 C144           4.9601    10.3878    11.2998 C.3     
 145 C145           4.1414    10.3560    10.0077 C.3     
 146 H146           2.0661    10.0826     8.4192 H       
 147 H147           0.3862     8.8712    10.4778 H       
 148 H148          -1.3899    10.5968    10.2519 H       
 149 H149           1.2862    11.8318    11.0351 H       
 150 H150          -0.3245    12.2919    11.6369 H       
 151 H151           0.3668    10.7087    12.0655 H       
 152 H152          -0.6875    11.4600     8.1383 H       
 153 H153          -1.6864     8.0010     9.4647 H       
 154 H154          -1.6488     8.1978     6.5026 H       
 155 H155          -2.2598     5.7339     8.1968 H       
 156 H156          -2.4511     5.8357     6.4301 H       
 157 H157          -0.7035     3.8867     6.9380 H       
 158 H158           0.8976     4.3842     6.8299 H       
 159 H159          -4.0471     7.2288     5.7461 H       
 160 H160          -6.1084     7.9526     7.6838 H       
 161 H161          -7.1024     9.6872     6.2170 H       
 162 H162          -5.4619    10.1487     6.7310 H       
 163 H163          -5.7356     9.5170     5.0895 H       
 164 H164          -8.3967     7.8583     6.2634 H       
 165 H165          -8.5557     5.1998     5.3235 H       
 166 H166          -8.4205     6.2843     3.9185 H       
 167 H167         -10.8207     5.0598     3.8700 H       
 168 H168         -12.7423     6.4927     5.5380 H       
 169 H169         -12.5958     6.8874     2.5161 H       
 170 H170         -13.9647     7.3922     3.5358 H       
 171 H171         -12.4450     8.8350     4.8615 H       
 172 H172         -11.0762     8.3302     3.8418 H       
 173 H173         -12.2166     9.2649     1.8482 H       
 174 H174         -13.5854     9.7697     2.8679 H       
 175 H175         -11.2172    10.8604     3.9535 H       
 176 H176         -12.8772    12.7006     0.8142 H       
 177 H177         -10.7216    13.1427     3.4890 H       
 178 H178         -11.4262    13.9030     2.1668 H       
 179 H179         -15.1365     5.7924     4.5182 H       
 180 H180         -14.9972     3.1500     3.2830 H       
 181 H181         -16.1432     2.0025     5.1168 H       
 182 H182         -14.6369     2.7236     5.7326 H       
 183 H183         -16.5036     3.2289     7.1347 H       
 184 H184         -17.5714     2.2742     3.4121 H       
 185 H185         -18.9205     4.4583     2.0182 H       
 186 H186         -19.6845     1.5416     2.4870 H       
 187 H187         -20.6148     2.6851     1.4895 H       
 188 H188         -18.3347     0.9479    -0.8421 H       
 189 H189         -21.5618     4.3853     2.5485 H       
 190 H190         -22.0289     4.0348     5.4097 H       
 191 H191         -22.6487     6.3696     5.8069 H       
 192 H192         -19.9170     6.1422     4.4640 H       
 193 H193         -20.4089     7.4147     5.6073 H       
 194 H194         -20.2795     5.7265     6.1564 H       
 195 H195         -22.2692     7.9301     4.0387 H       
 196 H196         -24.4990     5.0421     5.7925 H       
 197 H197         -26.1009     4.7936     3.3636 H       
 198 H198         -26.3726     2.8080     5.6659 H       
 199 H199         -27.4587     2.9226     4.2604 H       
 200 H200         -25.7626     2.4311     4.0367 H       
 201 H201         -28.6434     4.8249     4.2565 H       
 202 H202         -28.8412     6.3319     6.7500 H       
 203 H203         -29.5065     7.5695     4.0418 H       
 204 H204         -29.9760     8.2632     5.6124 H       
 205 H205         -27.5886     8.3894     6.2704 H       
 206 H206         -27.1191     7.6957     4.6998 H       
 207 H207         -25.9670    10.1153     4.9842 H       
 208 H208         -26.8146    11.3316     4.1936 H       
 209 H209         -31.4190     7.1130     6.8339 H       
 210 H210         -33.1149     5.2263     5.3876 H       
 211 H211         -32.7806     5.1233     8.4185 H       
 212 H212         -34.0751     4.2995     7.5163 H       
 213 H213         -32.3736     3.0397     6.2254 H       
 214 H214         -31.0791     3.8634     7.1276 H       
 215 H215         -30.8653     1.2022     7.4946 H       
 216 H216         -31.5495     0.6923     8.9419 H       
 217 H217         -35.5540     5.5774     6.4785 H       
 218 H218         -35.8450     8.2987     7.4971 H       
 219 H219         -36.9067     7.4612     4.7621 H       
 220 H220         -37.3828     8.9469     5.6191 H       
 221 H221         -34.6671     7.2077     3.8650 H       
 222 H222         -32.6644     8.3452     2.9967 H       
 223 H223         -32.1418    11.2765     2.6436 H       
 224 H224         -33.8080    11.9126     5.0537 H       
 225 H225         -35.8134    10.7708     5.9100 H       
 226 H226         -38.5089     8.7063     7.5089 H       
 227 H227         -39.9361     6.1809     7.8454 H       
 228 H228         -39.3798     8.0613    10.1828 H       
 229 H229         -40.5654     6.7340    10.2139 H       
 230 H230         -38.7596     5.1092     9.7162 H       
 231 H231         -37.5740     6.4364     9.6851 H       
 232 H232         -38.1153     6.9754    12.0441 H       
 233 H233         -39.3010     5.6481    12.0752 H       
 234 H234         -36.8104     4.5976    11.2566 H       
 235 H235         -35.8035     3.7741    14.4989 H       
 236 H236         -38.3717     6.0584    14.0713 H       
 237 H237         -37.4406     5.2534    15.2148 H       
 238 H238         -42.3172     6.9127     8.8736 H       
 239 H239         -43.0188     9.6171     8.0242 H       
 240 H240         -44.1004     7.1358     6.6164 H       
 241 H241         -44.7740     8.7736     6.4368 H       
 242 H242         -42.5822     9.5841     5.6075 H       
 243 H243         -41.9086     7.9463     5.7871 H       
 244 H244         -43.5808     7.0816     4.1731 H       
 245 H245         -44.2544     8.7194     3.9936 H       
 246 H246         -42.0626     9.5299     3.1643 H       
 247 H247         -41.3890     7.8922     3.3438 H       
 248 H248         -42.1290     8.3082     1.0926 H       
 249 H249         -43.0908     7.1389     1.7808 H       
 250 H250         -45.7054     9.6846     8.2257 H       
 251 H251         -46.6313     7.8293    10.2820 H       
 252 H252         -46.2597    10.8087    10.8244 H       
 253 H253         -47.1839     9.6997    11.8657 H       
 254 H254         -44.2478     9.3336    11.1214 H       
 255 H255         -45.5377    10.3310    13.7018 H       
 256 H256         -43.8025    10.0130    13.4642 H       
 257 H257         -44.5993    11.3226    12.5597 H       
 258 H258         -45.4750     7.2395    11.6289 H       
 259 H259         -44.3139     7.6286    12.9207 H       
 260 H260         -46.0490     7.9466    13.1583 H       
 261 H261         -49.0280     8.8183    11.0172 H       
 262 H262         -50.3904     9.1660     8.4578 H       
 263 H263         -51.4207     8.9257    11.3196 H       
 264 H264         -52.4587     9.0245     9.8770 H       
 265 H265         -50.3182     6.8976    10.3280 H       
 266 H266         -53.3563     6.7491    10.5817 H       
 267 H267         -52.2348     5.3738    10.7193 H       
 268 H268         -52.1973     6.6773    11.9308 H       
 269 H269         -50.8064     7.4137     7.9523 H       
 270 H270         -51.4225     5.8038     8.3960 H       
 271 H271         -52.5441     7.1791     8.2584 H       
 272 H272         -51.8492    12.4366     9.2478 H       
 273 H273          20.6208    13.0909    17.6983 H       
 274 H274          20.4526    12.3198    16.1029 H       
 275 H275          20.0736    14.0477    16.3007 H       
 276 H276          18.5492    11.7332    17.5799 H       
 277 H277          18.1702    13.4611    17.7777 H       
 278 H278          17.8027    13.6602    15.3335 H       
 279 H279          18.1818    11.9324    15.1357 H       
 280 H280          16.2784    11.3457    16.6128 H       
 281 H281          15.8993    13.0736    16.8105 H       
 282 H282          15.5319    13.2727    14.3664 H       
 283 H283          15.9109    11.5449    14.1686 H       
 284 H284          14.0075    10.9583    15.6456 H       
 285 H285          13.6284    12.6861    15.8434 H       
 286 H286          13.2610    12.8853    13.3992 H       
 287 H287          13.6400    11.1574    13.2014 H       
 288 H288          11.7366    10.5708    14.6784 H       
 289 H289          11.3576    12.2987    14.8762 H       
 290 H290          10.9901    12.4978    12.4320 H       
 291 H291          11.3691    10.7699    12.2343 H       
 292 H292           9.4657    10.1833    13.7113 H       
 293 H293           9.0867    11.9112    13.9090 H       
 294 H294           8.7192    12.1103    11.4649 H       
 295 H295           9.0983    10.3825    11.2671 H       
 296 H296           7.1949     9.7959    12.7441 H       
 297 H297           6.8158    11.5237    12.9419 H       
 298 H298           6.4484    11.7229    10.4977 H       
 299 H299           6.8274     9.9950    10.3000 H       
 300 H300           4.9240     9.4084    11.7770 H       
 301 H301           4.5449    11.1363    11.9747 H       
 302 H302           4.5565     9.6075     9.3328 H       
 303 H303           4.1775    11.3354     9.5306 H       
@<TRIPOS>BOND
   1    1    2 2
   2    1    4 1
   3    1   10 am
   4    3  129 am
   5    3    4 1
   6    3  146 1
   7    4    5 1
   8    4  147 1
   9    5    6 1
  10    5    7 1
  11    5  148 1
  12    6  149 1
  13    6  150 1
  14    6  151 1
  15    7  152 1
  16    8    9 2
  17    8   11 1
  18    8   18 am
  19   10   11 1
  20   10  153 1
  21   11   12 1
  22   11  154 1
  23   12   13 1
  24   12  155 1
  25   12  156 1
  26   13   14 2
  27   13   15 am
  28   15  157 1
  29   15  158 1
  30   16   17 2
  31   16   19 1
  32   16   23 am
  33   18   19 1
  34   18  159 1
  35   19   20 1
  36   19  160 1
  37   20  161 1
  38   20  162 1
  39   20  163 1
  40   21   22 2
  41   21   24 1
  42   21   27 am
  43   23   24 1
  44   23  164 1
  45   24  165 1
  46   24  166 1
  47   25   26 2
  48   25   28 1
  49   25   38 am
  50   27   28 1
  51   27  167 1
  52   28   29 1
  53   28  168 1
  54   29   30 1
  55   29  169 1
  56   29  170 1
  57   30   31 1
  58   30  171 1
  59   30  172 1
  60   31   32 1
  61   31  173 1
  62   31  174 1
  63   32   33 1
  64   32  175 1
  65   33   34 2
  66   33   35 1
  67   34  176 1
  68   35  177 1
  69   35  178 1
  70   36   37 2
  71   36   39 1
  72   36   44 am
  73   38   39 1
  74   38  179 1
  75   39   40 1
  76   39  180 1
  77   40   41 1
  78   40  181 1
  79   40  182 1
  80   41  183 1
  81   42   43 2
  82   42   45 1
  83   42   52 am
  84   44   45 1
  85   44  184 1
  86   45   46 1
  87   45  185 1
  88   46   47 1
  89   46  186 1
  90   46  187 1
  91   47   48 2
  92   47   49 1
  93   49  188 1
  94   50   51 2
  95   50   53 1
  96   50   59 am
  97   52   53 1
  98   52  189 1
  99   53   54 1
 100   53  190 1
 101   54   55 1
 102   54   56 1
 103   54  191 1
 104   55  192 1
 105   55  193 1
 106   55  194 1
 107   56  195 1
 108   57   58 2
 109   57   60 1
 110   57   64 am
 111   59   60 1
 112   59  196 1
 113   60   61 1
 114   60  197 1
 115   61  198 1
 116   61  199 1
 117   61  200 1
 118   62   63 2
 119   62   65 1
 120   62   73 am
 121   64   65 1
 122   64  201 1
 123   65   66 1
 124   65  202 1
 125   66   67 1
 126   66  203 1
 127   66  204 1
 128   67   68 1
 129   67  205 1
 130   67  206 1
 131   68   69 2
 132   68   70 am
 133   70  207 1
 134   70  208 1
 135   71   72 2
 136   71   74 1
 137   71   82 am
 138   73   74 1
 139   73  209 1
 140   74   75 1
 141   74  210 1
 142   75   76 1
 143   75  211 1
 144   75  212 1
 145   76   77 1
 146   76  213 1
 147   76  214 1
 148   77   78 2
 149   77   79 am
 150   79  215 1
 151   79  216 1
 152   80   81 2
 153   80   83 1
 154   80   94 am
 155   82   83 1
 156   82  217 1
 157   83   84 1
 158   83  218 1
 159   84   85 1
 160   84  219 1
 161   84  220 1
 162   85   86 ar
 163   85   91 ar
 164   86   87 ar
 165   86  221 1
 166   87   88 ar
 167   87  222 1
 168   88   89 1
 169   88   90 ar
 170   89  223 1
 171   90   91 ar
 172   90  224 1
 173   91  225 1
 174   92   93 2
 175   92   95 1
 176   92  105 am
 177   94   95 1
 178   94  226 1
 179   95   96 1
 180   95  227 1
 181   96   97 1
 182   96  228 1
 183   96  229 1
 184   97   98 1
 185   97  230 1
 186   97  231 1
 187   98   99 1
 188   98  232 1
 189   98  233 1
 190   99  100 1
 191   99  234 1
 192  100  101 2
 193  100  102 1
 194  101  235 1
 195  102  236 1
 196  102  237 1
 197  103  104 2
 198  103  106 1
 199  103  114 am
 200  105  106 1
 201  105  238 1
 202  106  107 1
 203  106  239 1
 204  107  108 1
 205  107  240 1
 206  107  241 1
 207  108  109 1
 208  108  242 1
 209  108  243 1
 210  109  110 1
 211  109  244 1
 212  109  245 1
 213  110  111 1
 214  110  246 1
 215  110  247 1
 216  111  248 1
 217  111  249 1
 218  112  113 2
 219  112  115 1
 220  112  122 am
 221  114  115 1
 222  114  250 1
 223  115  116 1
 224  115  251 1
 225  116  117 1
 226  116  252 1
 227  116  253 1
 228  117  118 1
 229  117  119 1
 230  117  254 1
 231  118  255 1
 232  118  256 1
 233  118  257 1
 234  119  258 1
 235  119  259 1
 236  119  260 1
 237  120  121 2
 238  120  123 1
 239  120  128 1
 240  122  123 1
 241  122  261 1
 242  123  124 1
 243  123  262 1
 244  124  125 1
 245  124  263 1
 246  124  264 1
 247  125  126 1
 248  125  127 1
 249  125  265 1
 250  126  266 1
 251  126  267 1
 252  126  268 1
 253  127  269 1
 254  127  270 1
 255  127  271 1
 256  128  272 1
 257  129  130 2
 258  129  145 1
 259  131  132 1
 260  131  273 1
 261  131  274 1
 262  131  275 1
 263  132  133 1
 264  132  276 1
 265  132  277 1
 266  133  134 1
 267  133  278 1
 268  133  279 1
 269  134  135 1
 270  134  280 1
 271  134  281 1
 272  135  136 1
 273  135  282 1
 274  135  283 1
 275  136  137 1
 276  136  284 1
 277  136  285 1
 278  137  138 1
 279  137  286 1
 280  137  287 1
 281  138  139 1
 282  138  288 1
 283  138  289 1
 284  139  140 1
 285  139  290 1
 286  139  291 1
 287  140  141 1
 288  140  292 1
 289  140  293 1
 290  141  142 1
 291  141  294 1
 292  141  295 1
 293  142  143 1
 294  142  296 1
 295  142  297 1
 296  143  144 1
 297  143  298 1
 298  143  299 1
 299  144  145 1
 300  144  300 1
 301  144  301 1
 302  145  302 1
 303  145  303 1

#	End of record

