#	Name: ASD02440030
#	Creating user name:	WinNT
#	Creation time:	15. 06. 2019 20:21

#	Modifying user name:	WinNT
#	Modification time:	15. 06. 2019 20:21

#	Program:	/corina/corina34_cracker 3.40 0067  02.08.2006

@<TRIPOS>MOLECULE
ASD02440030
  52   53    0    0    0
SMALL
NO_CHARGES


@<TRIPOS>ATOM
   1 C1            -0.0168     1.3843     0.0097 C.ar    
   2 C2             0.0021    -0.0041     0.0020 C.ar    
   3 C3             1.2022    -0.6802    -0.0127 C.ar    
   4 C4             2.4065     0.0329    -0.0204 C.ar    
   5 C5             2.3864     1.4327    -0.0131 C.ar    
   6 C6             1.1790     2.1021     0.0021 C.ar    
   7 C7             3.6883    -0.6857    -0.0356 C.2     
   8 C8             3.7054    -2.0366    -0.0421 C.2     
   9 C9             4.9420    -2.7298    -0.0567 C.2     
  10 O10            4.9591    -4.0790    -0.0632 O.3     
  11 C11            6.2404    -4.7115    -0.0780 C.3     
  12 C12            6.1381    -6.0540    -0.8047 C.3     
  13 O13            5.2907    -6.9338    -0.0630 O.3     
  14 C14            5.5487    -8.2550    -0.1551 C.2     
  15 C15            4.7475    -9.1849     0.5545 C.2     
  16 C16            5.0058   -10.5077     0.4622 C.2     
  17 C17            4.1753   -11.4716     1.1977 C.ar    
  18 C18            4.4411   -12.8429     1.1036 C.ar    
  19 C19            3.6573   -13.7435     1.7969 C.ar    
  20 C20            2.6038   -13.2869     2.5886 C.ar    
  21 C21            2.3393   -11.9270     2.6826 C.ar    
  22 C22            3.1199   -11.0209     1.9988 C.ar    
  23 O23           -1.2032     2.0453     0.0189 O.3     
  24 O24            1.1556     3.4618     0.0097 O.3     
  25 O25            3.9124   -15.0763     1.7075 O.3     
  26 O26            1.8340   -14.1750     3.2692 O.3     
  27 O27            6.4687    -8.6483    -0.8470 O.2     
  28 O28            5.9877    -2.1082    -0.0634 O.2     
  29 C29            5.5585    -5.8385    -2.1790 C.2     
  30 O30            4.4817    -6.3084    -2.4610 O.2     
  31 O31            6.2385    -5.1245    -3.0897 O.3     
  32 C32            6.7039    -4.9406     1.3376 C.2     
  33 O33            5.9713    -4.6808     2.2626 O.2     
  34 O34            7.9305    -5.4332     1.5707 O.3     
  35 H35           -0.9266    -0.5553     0.0080 H       
  36 H36            1.2138    -1.7601    -0.0179 H       
  37 H37            3.3130     1.9875    -0.0187 H       
  38 H38            4.6167    -0.1339    -0.0415 H       
  39 H39            2.7770    -2.5884    -0.0361 H       
  40 H40            6.9554    -4.0719    -0.5954 H       
  41 H41            7.1307    -6.4954    -0.8941 H       
  42 H42            3.9307    -8.8357     1.1687 H       
  43 H43            5.8226   -10.8569    -0.1520 H       
  44 H44            5.2570   -13.1954     0.4900 H       
  45 H45            1.5224   -11.5785     3.2970 H       
  46 H46            2.9146    -9.9635     2.0774 H       
  47 H47           -1.5426     2.2319     0.9049 H       
  48 H48            1.1573     3.8503     0.8952 H       
  49 H49            4.5318   -15.4038     2.3739 H       
  50 H50            2.1566   -14.3743     4.1588 H       
  51 H51            5.8263    -5.0132    -3.9573 H       
  52 H52            8.1831    -5.5629     2.4951 H       
@<TRIPOS>BOND
   1    1    2 ar
   2    1    6 ar
   3    1   23 1
   4    2    3 ar
   5    2   35 1
   6    3    4 ar
   7    3   36 1
   8    4    5 ar
   9    4    7 1
  10    5    6 ar
  11    5   37 1
  12    6   24 1
  13    7    8 2
  14    7   38 1
  15    8    9 1
  16    8   39 1
  17    9   10 1
  18    9   28 2
  19   10   11 1
  20   11   12 1
  21   11   32 1
  22   11   40 1
  23   12   13 1
  24   12   29 1
  25   12   41 1
  26   13   14 1
  27   14   15 1
  28   14   27 2
  29   15   16 2
  30   15   42 1
  31   16   17 1
  32   16   43 1
  33   17   18 ar
  34   17   22 ar
  35   18   19 ar
  36   18   44 1
  37   19   20 ar
  38   19   25 1
  39   20   21 ar
  40   20   26 1
  41   21   22 ar
  42   21   45 1
  43   22   46 1
  44   23   47 1
  45   24   48 1
  46   25   49 1
  47   26   50 1
  48   29   30 2
  49   29   31 1
  50   31   51 1
  51   32   33 2
  52   32   34 1
  53   34   52 1

#	End of record

