#	Name: ASD01150739
#	Creating user name:	WinNT
#	Creation time:	15. 06. 2019 19:04

#	Modifying user name:	WinNT
#	Modification time:	15. 06. 2019 19:04

#	Program:	/corina/corina34_cracker 3.40 0067  02.08.2006

@<TRIPOS>MOLECULE
ASD01150739
  39   41    0    0    0
SMALL
NO_CHARGES


@<TRIPOS>ATOM
   1 C1            -0.0034     1.4274     0.0440 C.2     
   2 C2            -0.5030     1.0184    -1.3177 C.3     
   3 N3             3.5640     2.3091     0.4785 N.ar    
   4 C4             2.4626     1.6142     0.3668 C.ar    
   5 C5             1.2155     2.2341     0.1662 C.ar    
   6 C6             1.1521     3.6369     0.0837 C.ar    
   7 C7             2.3644     4.3593     0.2089 C.ar    
   8 C8             2.3841     5.7583     0.1372 C.ar    
   9 C9             3.5820     6.4273     0.2629 C.ar    
  10 C10            4.7713     5.7212     0.4600 C.ar    
  11 C11            4.7756     4.3620     0.5327 C.ar    
  12 C12            3.5727     3.6474     0.4092 C.ar    
  13 O13            3.6069     7.7843     0.1942 O.3     
  14 C14            4.8804     8.4176     0.3320 C.3     
  15 F15            5.7341     7.9741    -0.6837 F       
  16 F16            4.7242     9.8046     0.2373 F       
  17 F17            5.4298     8.0941     1.5773 F       
  18 C18           -0.1342     4.3329    -0.1268 C.ar    
  19 C19           -1.1329     4.2709     0.8475 C.ar    
  20 C20           -2.3313     4.9229     0.6445 C.ar    
  21 C21           -2.5452     5.6372    -0.5212 C.ar    
  22 C22           -1.5601     5.7028    -1.4908 C.ar    
  23 C23           -0.3548     5.0603    -1.2984 C.ar    
  24 C24            2.5301     0.1113     0.4550 C.3     
  25 F25           -1.6216     0.1904    -1.1747 F       
  26 F26           -0.8571     2.1589    -2.0464 F       
  27 F27            0.5059     0.3261    -1.9960 F       
  28 O28           -0.6122     1.0938     1.0389 O.2     
  29 H29            1.4672     6.3082    -0.0158 H       
  30 H30            5.7013     6.2619     0.5558 H       
  31 H31            5.7045     3.8327     0.6855 H       
  32 H32           -0.9674     3.7135     1.7576 H       
  33 H33           -3.1046     4.8756     1.3970 H       
  34 H34           -3.4856     6.1456    -0.6752 H       
  35 H35           -1.7338     6.2617    -2.3985 H       
  36 H36            0.4151     5.1163    -2.0538 H       
  37 H37            2.4880    -0.1935     1.5007 H       
  38 H38            1.6879    -0.3225    -0.0840 H       
  39 H39            3.4632    -0.2371     0.0123 H       
@<TRIPOS>BOND
   1    1    2 1
   2    1    5 1
   3    1   28 2
   4    2   25 1
   5    2   26 1
   6    2   27 1
   7    3    4 ar
   8    3   12 ar
   9    4    5 ar
  10    4   24 1
  11    5    6 ar
  12    6    7 ar
  13    6   18 1
  14    7    8 ar
  15    7   12 ar
  16    8    9 ar
  17    8   29 1
  18    9   10 ar
  19    9   13 1
  20   10   11 ar
  21   10   30 1
  22   11   12 ar
  23   11   31 1
  24   13   14 1
  25   14   15 1
  26   14   16 1
  27   14   17 1
  28   18   19 ar
  29   18   23 ar
  30   19   20 ar
  31   19   32 1
  32   20   21 ar
  33   20   33 1
  34   21   22 ar
  35   21   34 1
  36   22   23 ar
  37   22   35 1
  38   23   36 1
  39   24   37 1
  40   24   38 1
  41   24   39 1

#	End of record

