#	Name: ASD08710014
#	Creating user name:	WinNT
#	Creation time:	15. 06. 2019 21:19

#	Modifying user name:	WinNT
#	Modification time:	15. 06. 2019 21:19

#	Program:	/corina/corina34_cracker 3.40 0067  02.08.2006

@<TRIPOS>MOLECULE
ASD08710014
  32   33    0    0    0
SMALL
NO_CHARGES


@<TRIPOS>ATOM
   1 C1            -0.0167     1.3779     0.0096 C.ar    
   2 C2             0.0021    -0.0041     0.0020 C.ar    
   3 C3             1.1721     2.0856     0.0021 C.ar    
   4 C4             2.3790     1.4094    -0.0131 C.ar    
   5 C5             2.3965     0.0274    -0.0207 C.ar    
   6 C6             1.2083    -0.6792    -0.0131 C.ar    
   7 S7             1.2314    -2.4410    -0.0222 S.o2    
   8 O8            -0.0180    -2.8559    -0.5571 O.2     
   9 O9             2.4812    -2.8231    -0.5803 O.2     
  10 N10            1.2526    -2.9391     1.5569 N.am    
  11 C11            0.0002    -3.1828     2.2885 C.3     
  12 C12            2.5245    -3.1555     2.2632 C.3     
  13 C13            2.4937    -4.5461     2.9063 C.3     
  14 N14            1.2910    -4.6698     3.7407 N.3     
  15 C15            0.0739    -4.5723     2.9305 C.3     
  16 C16            3.7392    -4.7347     3.7747 C.3     
  17 Cl17           1.1494     3.8215     0.0110 Cl      
  18 H18           -0.9591     1.9053     0.0169 H       
  19 H19           -0.9258    -0.5566     0.0083 H       
  20 H20            3.3073     1.9613    -0.0193 H       
  21 H21            3.3386    -0.5006    -0.0325 H       
  22 H22           -0.1237    -2.4271     3.0642 H       
  23 H23           -0.8415    -3.1431     1.5970 H       
  24 H24            3.3510    -3.0978     1.5550 H       
  25 H25            2.6475    -2.3972     3.0365 H       
  26 H26            2.4751    -5.3072     2.1262 H       
  27 H27            1.3041    -5.5294     4.2688 H       
  28 H28           -0.7990    -4.7215     3.5661 H       
  29 H29            0.0926    -5.3355     2.1526 H       
  30 H30            3.7565    -3.9740     4.5552 H       
  31 H31            3.7169    -5.7239     4.2319 H       
  32 H32            4.6314    -4.6405     3.1557 H       
@<TRIPOS>BOND
   1    1    2 ar
   2    1    3 ar
   3    1   18 1
   4    2    6 ar
   5    2   19 1
   6    3    4 ar
   7    3   17 1
   8    4    5 ar
   9    4   20 1
  10    5    6 ar
  11    5   21 1
  12    6    7 1
  13    7    8 2
  14    7    9 2
  15    7   10 am
  16   10   11 1
  17   10   12 1
  18   11   15 1
  19   11   22 1
  20   11   23 1
  21   12   13 1
  22   12   24 1
  23   12   25 1
  24   13   14 1
  25   13   16 1
  26   13   26 1
  27   14   15 1
  28   14   27 1
  29   15   28 1
  30   15   29 1
  31   16   30 1
  32   16   31 1
  33   16   32 1

#	End of record

