#	Name: ASD00170424
#	Creating user name:	WinNT
#	Creation time:	15. 06. 2019 18:32

#	Modifying user name:	WinNT
#	Modification time:	15. 06. 2019 18:32

#	Program:	/corina/corina34_cracker 3.40 0067  02.08.2006

@<TRIPOS>MOLECULE
ASD00170424
  44   46    0    0    0
SMALL
NO_CHARGES


@<TRIPOS>ATOM
   1 C1            -1.1369     1.6833    -1.1854 C.2     
   2 C2            -1.3576     0.3432    -1.4042 C.2     
   3 C3            -1.3146    -0.4361    -0.1848 C.2     
   4 C4            -1.0724     0.2942     0.8926 C.2     
   5 S5            -0.8750     1.9859     0.4714 S.3     
   6 C6            -1.5248    -1.9278    -0.1457 C.3     
   7 N7            -1.1235     2.6484    -2.1718 N.pl3   
   8 C8            -1.6085    -0.2320    -2.7255 C.2     
   9 C9            -2.9971    -0.4387    -3.1904 C.ar    
  10 O10           -0.6740    -0.5406    -3.4427 O.2     
  11 C11           -3.2411    -1.0882    -4.4018 C.ar    
  12 C12           -4.5381    -1.2785    -4.8299 C.ar    
  13 C13           -5.5976    -0.8266    -4.0606 C.ar    
  14 C14           -5.3616    -0.1812    -2.8580 C.ar    
  15 C15           -4.0692     0.0098    -2.4168 C.ar    
  16 Cl16          -7.2276    -1.0698    -4.6061 Cl      
  17 N17           -1.2906    -2.4186     1.2146 N.pl3   
  18 C18           -2.4186    -2.6035     2.1310 C.3     
  19 C19            0.0081    -2.7100     1.6380 C.ar    
  20 C20            0.2417    -3.0976     2.9513 C.ar    
  21 C21            1.5270    -3.3855     3.3665 C.ar    
  22 C22            2.5809    -3.2884     2.4764 C.ar    
  23 C23            2.3519    -2.9028     1.1683 C.ar    
  24 C24            1.0684    -2.6185     0.7451 C.ar    
  25 C25           -2.9649    -4.0254     1.9868 C.3     
  26 H26           -1.0019    -0.0993     1.8959 H       
  27 H27           -2.5475    -2.1586    -0.4442 H       
  28 H28           -0.8285    -2.4110    -0.8312 H       
  29 H29           -1.2041     2.3909    -3.1035 H       
  30 H30           -1.0336     3.5844    -1.9334 H       
  31 H31           -2.4158    -1.4406    -5.0027 H       
  32 H32           -4.7281    -1.7805    -5.7671 H       
  33 H33           -6.1917     0.1696    -2.2627 H       
  34 H34           -3.8864     0.5132    -1.4789 H       
  35 H35           -2.0837    -2.4452     3.1561 H       
  36 H36           -3.2035    -1.8866     1.8904 H       
  37 H37           -0.5809    -3.1734     3.6471 H       
  38 H38            1.7094    -3.6866     4.3875 H       
  39 H39            3.5851    -3.5138     2.8037 H       
  40 H40            3.1772    -2.8279     0.4757 H       
  41 H41            0.8901    -2.3178    -0.2767 H       
  42 H42           -2.1800    -4.7424     2.2274 H       
  43 H43           -3.8042    -4.1630     2.6686 H       
  44 H44           -3.2998    -4.1837     0.9617 H       
@<TRIPOS>BOND
   1    1    2 2
   2    1    7 1
   3    1    5 1
   4    2    3 1
   5    2    8 1
   6    3    4 2
   7    3    6 1
   8    4    5 1
   9    4   26 1
  10    6   17 1
  11    6   27 1
  12    6   28 1
  13    7   29 1
  14    7   30 1
  15    8    9 1
  16    8   10 2
  17    9   11 ar
  18    9   15 ar
  19   11   12 ar
  20   11   31 1
  21   12   13 ar
  22   12   32 1
  23   13   14 ar
  24   13   16 1
  25   14   15 ar
  26   14   33 1
  27   15   34 1
  28   17   18 1
  29   17   19 1
  30   18   25 1
  31   18   35 1
  32   18   36 1
  33   19   20 ar
  34   19   24 ar
  35   20   21 ar
  36   20   37 1
  37   21   22 ar
  38   21   38 1
  39   22   23 ar
  40   22   39 1
  41   23   24 ar
  42   23   40 1
  43   24   41 1
  44   25   42 1
  45   25   43 1
  46   25   44 1

#	End of record

