#	Name: ASD08070129
#	Creating user name:	WinNT
#	Creation time:	15. 06. 2019 21:14

#	Modifying user name:	WinNT
#	Modification time:	15. 06. 2019 21:14

#	Program:	/corina/corina34_cracker 3.40 0067  02.08.2006

@<TRIPOS>MOLECULE
ASD08070129
  47   47    0    0    0
SMALL
NO_CHARGES


@<TRIPOS>ATOM
   1 C1            -0.0187     1.5258     0.0104 C.3     
   2 C2             0.0021    -0.0041     0.0020 C.3     
   3 C3             1.4167     2.0553    -0.0004 C.3     
   4 O4            -1.6393    -2.7282     0.8439 O.2     
   5 C5            -1.4159    -2.0348    -0.1192 C.2     
   6 C6            -1.4333    -0.5336     0.0129 C.3     
   7 N7            -2.0815    -0.1618     1.2729 N.am    
   8 C8            -4.0706     0.3178     2.5921 C.2     
   9 C9            -3.4235    -0.0535     1.3341 C.2     
  10 C10           -5.4146     0.4263     2.6533 C.2     
  11 C11           -6.0651     0.7994     3.9177 C.ar    
  12 C12           -7.4586     0.9126     3.9839 C.ar    
  13 O13           -4.0970    -0.2646     0.3424 O.2     
  14 C14           -1.1198    -2.6704    -1.4531 C.3     
  15 C15           -1.1640    -4.1934    -1.3133 C.3     
  16 C16            1.3960     3.5852     0.0080 C.3     
  17 C17           -5.2933     1.0372     5.0610 C.ar    
  18 C18           -5.9073     1.3864     6.2426 C.ar    
  19 C19           -7.2914     1.5026     6.3017 C.ar    
  20 C20           -8.0628     1.2624     5.1704 C.ar    
  21 O21           -7.8920     1.8468     7.4693 O.3     
  22 C22           -9.3173     1.9485     7.4603 C.3     
  23 H23           -0.5459     1.8868    -0.8726 H       
  24 H24           -0.5289     1.8773     0.9072 H       
  25 H25            0.5123    -0.3556    -0.8948 H       
  26 H26            0.5293    -0.3651     0.8851 H       
  27 H27            1.9439     1.6943     0.8826 H       
  28 H28            1.9269     1.7038    -0.8972 H       
  29 H29           -1.9862    -0.1019    -0.8214 H       
  30 H30           -1.5448     0.0065     2.0632 H       
  31 H31           -3.4731     0.5052     3.4720 H       
  32 H32           -6.0122     0.2389     1.7734 H       
  33 H33           -8.0588     0.7261     3.1056 H       
  34 H34           -1.8649    -2.3506    -2.1814 H       
  35 H35           -0.1288    -2.3650    -1.7891 H       
  36 H36           -0.9498    -4.6532    -2.2781 H       
  37 H37           -0.4188    -4.5132    -0.5849 H       
  38 H38           -2.1549    -4.4988    -0.9773 H       
  39 H39            0.8858     3.9367     0.9048 H       
  40 H40            2.4186     3.9625     0.0002 H       
  41 H41            0.8688     3.9463    -0.8751 H       
  42 H42           -4.2181     0.9465     5.0163 H       
  43 H43           -5.3127     1.5701     7.1253 H       
  44 H44           -9.1377     1.3543     5.2214 H       
  45 H45           -9.6678     2.2295     8.4535 H       
  46 H46           -9.6230     2.7065     6.7392 H       
  47 H47           -9.7484     0.9870     7.1815 H       
@<TRIPOS>BOND
   1    1    2 1
   2    1    3 1
   3    1   23 1
   4    1   24 1
   5    2    6 1
   6    2   25 1
   7    2   26 1
   8    3   16 1
   9    3   27 1
  10    3   28 1
  11    4    5 2
  12    5    6 1
  13    5   14 1
  14    6    7 1
  15    6   29 1
  16    7    9 am
  17    7   30 1
  18    8   10 2
  19    8    9 1
  20    8   31 1
  21    9   13 2
  22   10   11 1
  23   10   32 1
  24   11   12 ar
  25   11   17 ar
  26   12   20 ar
  27   12   33 1
  28   14   15 1
  29   14   34 1
  30   14   35 1
  31   15   36 1
  32   15   37 1
  33   15   38 1
  34   16   39 1
  35   16   40 1
  36   16   41 1
  37   17   18 ar
  38   17   42 1
  39   18   19 ar
  40   18   43 1
  41   19   20 ar
  42   19   21 1
  43   20   44 1
  44   21   22 1
  45   22   45 1
  46   22   46 1
  47   22   47 1

#	End of record

