#	Name: ASD01903114
#	Creating user name:	WinNT
#	Creation time:	15. 06. 2019 19:54

#	Modifying user name:	WinNT
#	Modification time:	15. 06. 2019 19:54

#	Program:	/corina/corina34_cracker 3.40 0067  02.08.2006

@<TRIPOS>MOLECULE
ASD01903114
  55   59    0    0    0
SMALL
NO_CHARGES


@<TRIPOS>ATOM
   1 C1             0.1090     1.4048    -0.6454 C.ar    
   2 C2             0.1709     0.0476    -0.9004 C.ar    
   3 C3             1.3955    -0.5644    -1.0922 C.ar    
   4 C4             2.5580     0.1809    -1.0295 C.ar    
   5 C5             2.4960     1.5382    -0.7755 C.ar    
   6 C6             1.2715     2.1500    -0.5823 C.ar    
   7 C7            -1.2264     2.0732    -0.4425 C.3     
   8 C8            -1.2803     2.7087     0.9513 C.3     
   9 C9            -2.6843     3.2510     1.1797 C.3     
  10 C10           -3.0831     4.2870     0.1467 C.3     
  11 C11           -2.6803     3.9543    -1.2832 C.3     
  12 C12           -1.4109     3.1782    -1.4762 C.3     
  13 C13           -4.6071     4.2842     0.0413 C.2     
  14 N14           -4.9428     3.5727    -1.0488 N.am    
  15 C15           -3.8956     3.2326    -1.8239 C.2     
  16 O16           -3.9216     2.4863    -2.7788 O.2     
  17 O17           -5.3767     4.8272     0.8045 O.2     
  18 C18           -6.2660     3.2164    -1.3518 C.ar    
  19 C19           -7.0514     4.0586    -2.1265 C.ar    
  20 C20           -8.3534     3.7087    -2.4245 C.ar    
  21 C21           -8.8777     2.5136    -1.9495 C.ar    
  22 C22           -8.0920     1.6699    -1.1745 C.ar    
  23 C23           -6.7880     2.0176    -0.8809 C.ar    
  24 Cl24          -5.8055     0.9638     0.0875 Cl      
  25 N25          -10.1974     2.1595    -2.2513 N.am    
  26 C26          -10.9437     1.5025    -1.3415 C.2     
  27 C27          -12.3706     1.2186    -1.6198 C.ar    
  28 N28          -12.9087     1.6139    -2.7669 N.ar    
  29 C29          -14.1713     1.3819    -3.0529 C.ar    
  30 C30          -14.9918     0.7118    -2.1599 C.ar    
  31 C31          -14.4705     0.2812    -0.9496 C.ar    
  32 C32          -13.1353     0.5340    -0.6776 C.ar    
  33 O33          -10.4459     1.1428    -0.2927 O.2     
  34 H34           -0.7373    -0.5347    -0.9493 H       
  35 H35            1.4440    -1.6249    -1.2906 H       
  36 H36            3.5148    -0.2974    -1.1787 H       
  37 H37            3.4043     2.1204    -0.7258 H       
  38 H38            1.2231     3.2104    -0.3835 H       
  39 H39           -2.0247     1.3378    -0.5427 H       
  40 H40           -1.0509     1.9565     1.7060 H       
  41 H41           -0.5587     3.5235     1.0106 H       
  42 H42           -3.3925     2.4234     1.1403 H       
  43 H43           -2.7301     3.7047     2.1697 H       
  44 H44           -2.7072     5.2703     0.4296 H       
  45 H45           -2.5929     4.8905    -1.8346 H       
  46 H46           -0.5666     3.8645    -1.4109 H       
  47 H47           -1.4207     2.7310    -2.4702 H       
  48 H48           -6.6441     4.9881    -2.4960 H       
  49 H49           -8.9644     4.3648    -3.0267 H       
  50 H50           -8.4994     0.7404    -0.8051 H       
  51 H51          -10.5750     2.3869    -3.1153 H       
  52 H52          -14.5742     1.7187    -3.9967 H       
  53 H53          -16.0274     0.5270    -2.4041 H       
  54 H54          -15.0897    -0.2429    -0.2367 H       
  55 H55          -12.6961     0.2125     0.2552 H       
@<TRIPOS>BOND
   1    1    2 ar
   2    1    6 ar
   3    1    7 1
   4    2    3 ar
   5    2   34 1
   6    3    4 ar
   7    3   35 1
   8    4    5 ar
   9    4   36 1
  10    5    6 ar
  11    5   37 1
  12    6   38 1
  13    7    8 1
  14    7   12 1
  15    7   39 1
  16    8    9 1
  17    8   40 1
  18    8   41 1
  19    9   10 1
  20    9   42 1
  21    9   43 1
  22   10   11 1
  23   10   13 1
  24   10   44 1
  25   11   12 1
  26   11   15 1
  27   11   45 1
  28   12   46 1
  29   12   47 1
  30   13   14 am
  31   13   17 2
  32   14   15 am
  33   14   18 1
  34   15   16 2
  35   18   19 ar
  36   18   23 ar
  37   19   20 ar
  38   19   48 1
  39   20   21 ar
  40   20   49 1
  41   21   22 ar
  42   21   25 1
  43   22   23 ar
  44   22   50 1
  45   23   24 1
  46   25   26 am
  47   25   51 1
  48   26   27 1
  49   26   33 2
  50   27   28 ar
  51   27   32 ar
  52   28   29 ar
  53   29   30 ar
  54   29   52 1
  55   30   31 ar
  56   30   53 1
  57   31   32 ar
  58   31   54 1
  59   32   55 1

#	End of record

