#	Name: ASD05730062
#	Creating user name:	WinNT
#	Creation time:	15. 06. 2019 21:02

#	Modifying user name:	WinNT
#	Modification time:	15. 06. 2019 21:02

#	Program:	/corina/corina34_cracker 3.40 0067  02.08.2006

@<TRIPOS>MOLECULE
ASD05730062
  79   85    0    0    0
SMALL
NO_CHARGES


@<TRIPOS>ATOM
   1 C1             0.0282     1.5030     0.0341 C.3     
   2 C2             0.0363    -0.0039     0.0195 C.ar    
   3 C3            -1.0077    -0.7050     0.5948 C.ar    
   4 C4            -1.0034    -2.0859     0.5831 C.ar    
   5 C5             0.0509    -2.7707    -0.0078 C.ar    
   6 C6             1.0976    -2.0634    -0.5851 C.ar    
   7 C7             1.0848    -0.6824    -0.5743 C.ar    
   8 N8             0.0586    -4.1686    -0.0209 N.pl3   
   9 C9             0.5902    -4.8464    -1.1011 C.ar    
  10 N10            0.6883    -6.1656    -1.0409 N.ar    
  11 C11            1.1936    -6.8519    -2.0596 C.ar    
  12 C12            1.6230    -6.1474    -3.2052 C.ar    
  13 C13            1.4979    -4.7500    -3.2199 C.ar    
  14 N14            0.9793    -4.1512    -2.1642 N.ar    
  15 N15            1.2994    -8.2188    -2.0056 N.am    
  16 C16            1.8135    -8.9096    -3.0413 C.2     
  17 C17            2.2686    -8.2095    -4.2443 C.2     
  18 C18            2.1653    -6.8457    -4.3080 C.2     
  19 C19            0.8491    -8.9341    -0.8091 C.3     
  20 C20           -0.6044    -9.3021    -0.9611 C.2     
  21 O21            1.9006   -10.1229    -2.9768 O.2     
  22 C22            2.8344    -8.9703    -5.3829 C.ar    
  23 C23            2.0312    -9.8554    -6.1016 C.ar    
  24 N24           -1.2369    -9.9704     0.0237 N.am    
  25 C25           -2.6458   -10.3902     0.0066 C.3     
  26 C26            1.2824     2.0373     0.7502 C.3     
  27 S27            4.5640   -11.2956    -8.8657 S.o2    
  28 O28            3.4668   -11.6490    -9.6967 O.2     
  29 C29            5.2044   -12.8043    -8.2189 C.2     
  30 O30            5.6820   -10.5512    -9.3295 O.2     
  31 C31            4.5324   -13.9521    -8.0890 C.2     
  32 C32            4.1705    -8.7999    -5.7439 C.ar    
  33 C33            4.6916    -9.5108    -6.8055 C.ar    
  34 C34            3.8913   -10.3913    -7.5113 C.ar    
  35 C35            2.5637   -10.5608    -7.1613 C.ar    
  36 N36            2.0503     2.8179    -0.2441 N.3     
  37 C37            1.0597     3.2766    -1.2513 C.3     
  38 C38            0.1207     2.0541    -1.4074 C.3     
  39 C39            2.7241     3.9593     0.3893 C.3     
  40 O40           -1.2049    -8.9969    -1.9696 O.2     
  41 C41           -0.6289   -10.4072     1.2937 C.3     
  42 C42           -1.8176   -10.5376     2.2783 C.3     
  43 C43           -2.9301   -11.0955     1.3495 C.3     
  44 N44            5.2353   -14.9419    -7.5763 N.2     
  45 C45            6.4629   -14.6929    -7.2664 C.2     
  46 S46            6.8462   -13.0682    -7.6361 S.3     
  47 H47           -0.8730     1.8712     0.5243 H       
  48 H48           -1.8271    -0.1720     1.0540 H       
  49 H49           -1.8186    -2.6329     1.0333 H       
  50 H50            1.9188    -2.5928    -1.0454 H       
  51 H51            1.8984    -0.1319    -1.0230 H       
  52 H52           -0.3094    -4.6627     0.7284 H       
  53 H53            1.8154    -4.1769    -4.0785 H       
  54 H54            2.4956    -6.3114    -5.1866 H       
  55 H55            1.4419    -9.8400    -0.6827 H       
  56 H56            0.9724    -8.2943     0.0647 H       
  57 H57            0.9947    -9.9887    -5.8290 H       
  58 H58           -3.2912    -9.5180    -0.0979 H       
  59 H59           -2.8167   -11.0814    -0.8187 H       
  60 H60            0.9904     2.6795     1.5811 H       
  61 H61            1.8849     1.2052     1.1144 H       
  62 H62            3.4981   -14.0598    -8.3804 H       
  63 H63            4.7961    -8.1125    -5.1938 H       
  64 H64            5.7262    -9.3794    -7.0862 H       
  65 H65            1.9439   -11.2499    -7.7157 H       
  66 H66            0.5077     4.1410    -0.8822 H       
  67 H67            1.5509     3.5075    -2.1966 H       
  68 H68            0.5596     1.3135    -2.0760 H       
  69 H69           -0.8608     2.3648    -1.7653 H       
  70 H70            3.4104     3.5970     1.1547 H       
  71 H71            3.2813     4.5160    -0.3641 H       
  72 H72            1.9807     4.6117     0.8473 H       
  73 H73           -0.1345   -11.3703     1.1662 H       
  74 H74            0.0800    -9.6605     1.6515 H       
  75 H75           -1.5875   -11.2422     3.0775 H       
  76 H76           -2.0966    -9.5655     2.6849 H       
  77 H77           -3.9172   -10.8266     1.7254 H       
  78 H78           -2.8379   -12.1764     1.2436 H       
  79 H79            7.1501   -15.4085    -6.8398 H       
@<TRIPOS>BOND
   1    1    2 1
   2    1   26 1
   3    1   38 1
   4    1   47 1
   5    2    3 ar
   6    2    7 ar
   7    3    4 ar
   8    3   48 1
   9    4    5 ar
  10    4   49 1
  11    5    6 ar
  12    5    8 1
  13    6    7 ar
  14    6   50 1
  15    7   51 1
  16    8    9 1
  17    8   52 1
  18    9   10 ar
  19    9   14 ar
  20   10   11 ar
  21   11   12 ar
  22   11   15 1
  23   12   13 ar
  24   12   18 1
  25   13   14 ar
  26   13   53 1
  27   15   16 am
  28   15   19 1
  29   16   17 1
  30   16   21 2
  31   17   18 2
  32   17   22 1
  33   18   54 1
  34   19   20 1
  35   19   55 1
  36   19   56 1
  37   20   24 am
  38   20   40 2
  39   22   32 ar
  40   22   23 ar
  41   23   35 ar
  42   23   57 1
  43   24   25 1
  44   24   41 1
  45   25   43 1
  46   25   58 1
  47   25   59 1
  48   26   36 1
  49   26   60 1
  50   26   61 1
  51   27   28 2
  52   27   29 1
  53   27   30 2
  54   27   34 1
  55   29   31 2
  56   29   46 1
  57   31   44 1
  58   31   62 1
  59   32   33 ar
  60   32   63 1
  61   33   34 ar
  62   33   64 1
  63   34   35 ar
  64   35   65 1
  65   36   37 1
  66   36   39 1
  67   37   38 1
  68   37   66 1
  69   37   67 1
  70   38   68 1
  71   38   69 1
  72   39   70 1
  73   39   71 1
  74   39   72 1
  75   41   42 1
  76   41   73 1
  77   41   74 1
  78   42   43 1
  79   42   75 1
  80   42   76 1
  81   43   77 1
  82   43   78 1
  83   44   45 2
  84   45   46 1
  85   45   79 1

#	End of record

