#	Name: ASD08151114
#	Creating user name:	WinNT
#	Creation time:	15. 06. 2019 21:17

#	Modifying user name:	WinNT
#	Modification time:	15. 06. 2019 21:17

#	Program:	/corina/corina34_cracker 3.40 0067  02.08.2006

@<TRIPOS>MOLECULE
ASD08151114
  46   50    0    0    0
SMALL
NO_CHARGES


@<TRIPOS>ATOM
   1 C1             3.8041     2.1525     3.1254 C.ar    
   2 C2             3.1753     0.9076     3.3096 C.ar    
   3 C3             3.1513    -0.0013     2.2916 C.ar    
   4 C4             3.7412     0.2816     1.0656 C.ar    
   5 C5             4.3693     1.4944     0.8447 C.ar    
   6 C6             4.4098     2.4566     1.8826 C.ar    
   7 C7             3.6965    -0.7452    -0.0365 C.3     
   8 C8             2.5481    -0.4173    -0.9928 C.3     
   9 N9             3.4855    -2.0742     0.5425 N.pl3   
  10 C10            4.5631    -2.8012     1.0175 C.ar    
  11 C11            4.3793    -4.0773     1.5760 C.ar    
  12 C12            5.5118    -4.7674     2.0408 C.ar    
  13 N13            6.7058    -4.1936     1.9362 N.ar    
  14 C14            6.8302    -2.9955     1.4050 C.ar    
  15 N15            5.7966    -2.3107     0.9509 N.ar    
  16 N16            3.3069    -4.8746     1.7983 N.2     
  17 C17            3.6994    -5.9829     2.3563 C.2     
  18 N18            5.0517    -5.9650     2.5269 N.pl3   
  19 C19            4.9948     1.7835    -0.4667 C.ar    
  20 C20            4.4898     2.8028    -1.2733 C.ar    
  21 C21            5.0781     3.0679    -2.4953 C.ar    
  22 C22            6.1669     2.3223    -2.9184 C.ar    
  23 C23            6.6705     1.3107    -2.1213 C.ar    
  24 C24            6.0943     1.0412    -0.8965 C.ar    
  25 F25            2.5960     0.6116     4.4937 F       
  26 F26            4.5908     4.0549    -3.2787 F       
  27 N27            5.0067     3.6368     1.7039 N.ar    
  28 C28            5.0473     4.5327     2.6612 C.ar    
  29 C29            4.4718     4.2983     3.9074 C.ar    
  30 C30            3.8402     3.1121     4.1540 C.ar    
  31 H31            2.6668    -0.9549     2.4413 H       
  32 H32            4.6394    -0.7326    -0.5832 H       
  33 H33            1.6052    -0.4299    -0.4461 H       
  34 H34            2.7051     0.5716    -1.4236 H       
  35 H35            2.5158    -1.1600    -1.7900 H       
  36 H36            2.5905    -2.4447     0.5931 H       
  37 H37            7.8150    -2.5577     1.3349 H       
  38 H38            3.0495    -6.7968     2.6421 H       
  39 H39            5.5900    -6.6698     2.9199 H       
  40 H40            3.6408     3.3835    -0.9439 H       
  41 H41            6.6237     2.5318    -3.8744 H       
  42 H42            7.5192     0.7329    -2.4562 H       
  43 H43            6.4893     0.2510    -0.2753 H       
  44 H44            5.5401     5.4761     2.4783 H       
  45 H45            4.5213     5.0547     4.6767 H       
  46 H46            3.3884     2.9132     5.1145 H       
@<TRIPOS>BOND
   1    1    2 ar
   2    1    6 ar
   3    1   30 ar
   4    2    3 ar
   5    2   25 1
   6    3    4 ar
   7    3   31 1
   8    4    5 ar
   9    4    7 1
  10    5    6 ar
  11    5   19 1
  12    6   27 ar
  13    7    8 1
  14    7    9 1
  15    7   32 1
  16    8   33 1
  17    8   34 1
  18    8   35 1
  19    9   10 1
  20    9   36 1
  21   10   11 ar
  22   10   15 ar
  23   11   12 ar
  24   11   16 1
  25   12   13 ar
  26   12   18 1
  27   13   14 ar
  28   14   15 ar
  29   14   37 1
  30   16   17 2
  31   17   18 1
  32   17   38 1
  33   18   39 1
  34   19   20 ar
  35   19   24 ar
  36   20   21 ar
  37   20   40 1
  38   21   22 ar
  39   21   26 1
  40   22   23 ar
  41   22   41 1
  42   23   24 ar
  43   23   42 1
  44   24   43 1
  45   27   28 ar
  46   28   29 ar
  47   28   44 1
  48   29   30 ar
  49   29   45 1
  50   30   46 1

#	End of record

