#	Name: ASD09116150
#	Creating user name:	WinNT
#	Creation time:	15. 06. 2019 21:20

#	Modifying user name:	WinNT
#	Modification time:	15. 06. 2019 21:20

#	Program:	/corina/corina34_cracker 3.40 0067  02.08.2006

@<TRIPOS>MOLECULE
ASD09116150
  88   95    0    0    0
SMALL
NO_CHARGES


@<TRIPOS>ATOM
   1 N1            -0.0613     1.6026    -0.5383 N.2     
   2 C2            -0.0898     0.2763    -1.1800 C.3     
   3 C3             1.1888     1.9781    -0.5232 C.2     
   4 N4             2.0151     1.0676    -1.0773 N.2     
   5 C5             1.3683     0.0141    -1.5032 C.2     
   6 N6             1.6191     3.1791     0.0037 N.pl3   
   7 C7             2.9897     3.4575     0.0848 C.ar    
   8 C8             3.4394     4.7664    -0.0217 C.ar    
   9 C9             3.8978     2.4243     0.2775 C.ar    
  10 C10            5.2498     2.6992     0.3575 C.ar    
  11 C11            5.6999     4.0105     0.2450 C.ar    
  12 C12            4.7909     5.0420     0.0577 C.ar    
  13 N13            1.8927    -1.0850    -2.1090 N.pl3   
  14 C14           -0.6184    -0.7643    -0.2267 C.ar    
  15 C15           -1.1141    -0.3661     0.9980 C.ar    
  16 N16           -0.6011    -2.0408    -0.5868 N.ar    
  17 C17           -1.0495    -2.9638     0.2119 C.ar    
  18 C18           -1.5646    -2.6523     1.4757 C.ar    
  19 C19           -1.6072    -1.3307     1.8903 C.ar    
  20 C20           -1.0842    -4.4517    -0.0853 C.3     
  21 C21           -0.2993    -5.1345     1.0537 C.3     
  22 C22           -0.8720    -4.6917     2.4018 C.3     
  23 N23           -2.0013    -3.7618     2.2039 N.3     
  24 C24           -3.0667    -4.4518     1.4505 C.3     
  25 C25           -2.5553    -4.8869     0.0754 C.3     
  26 C26           -2.1440    -0.9531     3.2200 C.ar    
  27 N27            7.0703     4.2903     0.3264 N.3     
  28 C28            7.5513     4.9283    -0.9057 C.3     
  29 C29            9.0721     5.0862    -0.8398 C.3     
  30 C30            9.4394     5.9407     0.3765 C.3     
  31 C31            8.8852     5.2790     1.6413 C.3     
  32 C32            7.3699     5.1156     1.5035 C.3     
  33 N33           10.9010     6.0471     0.4783 N.3     
  34 F34            6.1337     1.6949     0.5454 F       
  35 C35           11.5231     4.7180     0.5311 C.3     
  36 C36           -1.4097    -0.1166     4.0590 C.ar    
  37 C37           -3.3873    -1.4286     3.6332 C.ar    
  38 C38           -3.8821    -1.0735     4.8716 C.ar    
  39 C39           -3.1468    -0.2469     5.7021 C.ar    
  40 C40           -1.9145     0.2319     5.2953 C.ar    
  41 C41           11.2899     6.8618     1.6366 C.3     
  42 C42           12.8058     7.0718     1.6283 C.3     
  43 C43           13.5050     5.7106     1.6802 C.3     
  44 C44           13.0459     4.8640     0.4898 C.3     
  45 C45           14.9975     5.9082     1.6118 C.2     
  46 O46           15.8172     4.8457     1.6419 O.3     
  47 O47           15.4562     7.0230     1.5300 O.2     
  48 H48           -0.6893     0.3023    -2.0899 H       
  49 H49            0.9725     3.8304     0.3177 H       
  50 H50            2.7324     5.5698    -0.1671 H       
  51 H51            3.5474     1.4065     0.3651 H       
  52 H52            5.1403     6.0602    -0.0297 H       
  53 H53            2.8482    -1.1428    -2.2661 H       
  54 H54            1.3112    -1.8111    -2.3840 H       
  55 H55           -1.1223     0.6796     1.2679 H       
  56 H56           -0.6766    -4.6874    -1.0684 H       
  57 H57           -0.3883    -6.2167     0.9587 H       
  58 H58            0.7510    -4.8491     0.9934 H       
  59 H59           -1.2191    -5.5674     2.9503 H       
  60 H60           -0.0923    -4.1931     2.9776 H       
  61 H61           -3.3906    -5.3305     2.0083 H       
  62 H62           -3.9123    -3.7760     1.3225 H       
  63 H63           -3.1598    -4.4194    -0.7019 H       
  64 H64           -2.6254    -5.9711    -0.0122 H       
  65 H65            7.2873     4.3085    -1.7625 H       
  66 H66            7.0885     5.9095    -1.0111 H       
  67 H67            9.5362     4.1042    -0.7483 H       
  68 H68            9.4270     5.5739    -1.7477 H       
  69 H69            9.0075     6.9354     0.2667 H       
  70 H70            9.3465     4.3001     1.7719 H       
  71 H71            9.1066     5.9046     2.5061 H       
  72 H72            6.9079     6.0959     1.3868 H       
  73 H73            6.9741     4.6318     2.3965 H       
  74 H74           11.2312     4.2168     1.4539 H       
  75 H75           11.1915     4.1277    -0.3232 H       
  76 H76           -0.4474     0.2578     3.7424 H       
  77 H77           -3.9626    -2.0735     2.9854 H       
  78 H78           -4.8454    -1.4414     5.1929 H       
  79 H79           -3.5381     0.0287     6.6702 H       
  80 H80           -1.3445     0.8766     5.9479 H       
  81 H81           10.7890     7.8285     1.5853 H       
  82 H82           10.9991     6.3505     2.5543 H       
  83 H83           13.0956     7.5953     0.7172 H       
  84 H84           13.0959     7.6633     2.4966 H       
  85 H85           13.2460     5.2032     2.6094 H       
  86 H86           13.5076     3.8782     0.5447 H       
  87 H87           13.3395     5.3528    -0.4392 H       
  88 H88           16.7668     5.0224     1.5954 H       
@<TRIPOS>BOND
   1    1    2 1
   2    1    3 2
   3    2   14 1
   4    2    5 1
   5    2   48 1
   6    3    4 1
   7    3    6 1
   8    4    5 2
   9    5   13 1
  10    6    7 1
  11    6   49 1
  12    7    8 ar
  13    7    9 ar
  14    8   12 ar
  15    8   50 1
  16    9   10 ar
  17    9   51 1
  18   10   11 ar
  19   10   34 1
  20   11   12 ar
  21   11   27 1
  22   12   52 1
  23   13   53 1
  24   13   54 1
  25   14   15 ar
  26   14   16 ar
  27   15   19 ar
  28   15   55 1
  29   16   17 ar
  30   17   18 ar
  31   17   20 1
  32   18   19 ar
  33   18   23 1
  34   19   26 1
  35   20   21 1
  36   20   25 1
  37   20   56 1
  38   21   22 1
  39   21   57 1
  40   21   58 1
  41   22   23 1
  42   22   59 1
  43   22   60 1
  44   23   24 1
  45   24   25 1
  46   24   61 1
  47   24   62 1
  48   25   63 1
  49   25   64 1
  50   26   36 ar
  51   26   37 ar
  52   27   28 1
  53   27   32 1
  54   28   29 1
  55   28   65 1
  56   28   66 1
  57   29   30 1
  58   29   67 1
  59   29   68 1
  60   30   31 1
  61   30   33 1
  62   30   69 1
  63   31   32 1
  64   31   70 1
  65   31   71 1
  66   32   72 1
  67   32   73 1
  68   33   41 1
  69   33   35 1
  70   35   44 1
  71   35   74 1
  72   35   75 1
  73   36   40 ar
  74   36   76 1
  75   37   38 ar
  76   37   77 1
  77   38   39 ar
  78   38   78 1
  79   39   40 ar
  80   39   79 1
  81   40   80 1
  82   41   42 1
  83   41   81 1
  84   41   82 1
  85   42   43 1
  86   42   83 1
  87   42   84 1
  88   43   44 1
  89   43   45 1
  90   43   85 1
  91   44   86 1
  92   44   87 1
  93   45   46 1
  94   45   47 2
  95   46   88 1

#	End of record

