#	Name: ASD02030131
#	Creating user name:	WinNT
#	Creation time:	15. 06. 2019 20:14

#	Modifying user name:	WinNT
#	Modification time:	15. 06. 2019 20:14

#	Program:	/corina/corina34_cracker 3.40 0067  02.08.2006

@<TRIPOS>MOLECULE
ASD02030131
  58   62    0    0    0
SMALL
NO_CHARGES


@<TRIPOS>ATOM
   1 N1            -0.0330     1.2426     0.3467 N.am    
   2 C2            -0.2590    -0.2094     0.3692 C.3     
   3 C3            -1.3003    -0.5265     1.4496 C.3     
   4 N4            -2.4529     0.3669     1.2676 N.am    
   5 C5            -2.2269     1.8189     1.2450 C.3     
   6 C6            -1.1863     2.1363     0.1702 C.3     
   7 C7             1.2090     1.7459     0.4908 C.2     
   8 C8             2.3400     0.8456     0.8001 C.2     
   9 N9             3.5693     1.2174     1.0856 N.2     
  10 N10            2.2923    -0.4985     0.8449 N.2     
  11 C11            3.4927    -0.9203     1.1513 C.2     
  12 N12            4.2806     0.1644     1.2989 N.pl3   
  13 O13            1.3991     2.9401     0.3664 O.2     
  14 C14           -3.6949    -0.1363     1.1235 C.2     
  15 C15           -3.8938    -1.5903     1.0420 C.2     
  16 O16           -4.6513     0.6129     1.0609 O.2     
  17 C17           -0.7353     3.5920     0.3061 C.3     
  18 C18           -1.7941     1.9105    -1.2156 C.3     
  19 C19            5.6428     0.1489     1.6280 C.ar    
  20 C20            6.3427     1.3418     1.7501 C.ar    
  21 C21            7.6850     1.3232     2.0745 C.ar    
  22 C22            8.3321     0.1181     2.2772 C.ar    
  23 C23            7.6379    -1.0717     2.1564 C.ar    
  24 C24            6.2939    -1.0594     1.8382 C.ar    
  25 C25           -5.0734    -2.2033     0.7644 C.2     
  26 C26           -4.7989    -3.6396     0.7884 C.ar    
  27 C27           -3.4295    -3.7612     1.0892 C.ar    
  28 O28           -2.9306    -2.5173     1.2260 O.3     
  29 C29           -5.5757    -4.7830     0.5862 C.ar    
  30 C30           -5.0000    -6.0184     0.6818 C.ar    
  31 C31           -3.6496    -6.1441     0.9788 C.ar    
  32 C32           -2.8662    -5.0289     1.1817 C.ar    
  33 C33           -6.3971    -1.5383     0.4876 C.3     
  34 H34           -0.6284    -0.5372    -0.6024 H       
  35 H35            0.6752    -0.7214     0.6000 H       
  36 H36           -1.6225    -1.5634     1.3540 H       
  37 H37           -0.8649    -0.3656     2.4359 H       
  38 H38           -3.1611     2.3310     1.0143 H       
  39 H39           -1.8575     2.1468     2.2167 H       
  40 H40            3.7965    -1.9501     1.2681 H       
  41 H41           -0.1960     3.7192     1.2447 H       
  42 H42           -0.0807     3.8488    -0.5268 H       
  43 H43           -1.6080     4.2450     0.2970 H       
  44 H44           -2.6579     2.5628    -1.3441 H       
  45 H45           -1.0507     2.1373    -1.9797 H       
  46 H46           -2.1068     0.8706    -1.3102 H       
  47 H47            5.8380     2.2833     1.5912 H       
  48 H48            8.2299     2.2508     2.1696 H       
  49 H49            9.3820     0.1061     2.5302 H       
  50 H50            8.1460    -2.0113     2.3153 H       
  51 H51            5.7521    -1.9889     1.7443 H       
  52 H52           -6.6268    -4.6909     0.3556 H       
  53 H53           -5.5995    -6.9030     0.5257 H       
  54 H54           -3.2082    -7.1271     1.0515 H       
  55 H55           -1.8169    -5.1393     1.4125 H       
  56 H56           -6.4938    -1.3526    -0.5821 H       
  57 H57           -7.2067    -2.1890     0.8181 H       
  58 H58           -6.4482    -0.5923     1.0267 H       
@<TRIPOS>BOND
   1    1    2 1
   2    1    7 am
   3    1    6 1
   4    2    3 1
   5    2   34 1
   6    2   35 1
   7    3    4 1
   8    3   36 1
   9    3   37 1
  10    4    5 1
  11    4   14 am
  12    5    6 1
  13    5   38 1
  14    5   39 1
  15    6   17 1
  16    6   18 1
  17    7    8 1
  18    7   13 2
  19    8    9 2
  20    8   10 1
  21    9   12 1
  22   10   11 2
  23   11   12 1
  24   11   40 1
  25   12   19 1
  26   14   15 1
  27   14   16 2
  28   15   25 2
  29   15   28 1
  30   17   41 1
  31   17   42 1
  32   17   43 1
  33   18   44 1
  34   18   45 1
  35   18   46 1
  36   19   20 ar
  37   19   24 ar
  38   20   21 ar
  39   20   47 1
  40   21   22 ar
  41   21   48 1
  42   22   23 ar
  43   22   49 1
  44   23   24 ar
  45   23   50 1
  46   24   51 1
  47   25   26 1
  48   25   33 1
  49   26   27 ar
  50   26   29 ar
  51   27   28 1
  52   27   32 ar
  53   29   30 ar
  54   29   52 1
  55   30   31 ar
  56   30   53 1
  57   31   32 ar
  58   31   54 1
  59   32   55 1
  60   33   56 1
  61   33   57 1
  62   33   58 1

#	End of record

