#	Name: ASD03430556
#	Creating user name:	WinNT
#	Creation time:	15. 06. 2019 20:41

#	Modifying user name:	WinNT
#	Modification time:	15. 06. 2019 20:41

#	Program:	/corina/corina34_cracker 3.40 0067  02.08.2006

@<TRIPOS>MOLECULE
ASD03430556
  48   51    0    0    0
SMALL
NO_CHARGES


@<TRIPOS>ATOM
   1 C1             0.0021    -0.0041     0.0020 C.1     
   2 C2            -0.0173     1.4278     0.0099 C.ar    
   3 C3             1.1866     2.1488     0.0023 C.ar    
   4 C4             1.1588     3.5323     0.0100 C.ar    
   5 C5            -0.0558     4.2025     0.0257 C.ar    
   6 C6            -1.2500     3.4896     0.0338 C.ar    
   7 C7            -1.2357     2.1131     0.0194 C.ar    
   8 N8             0.0175    -1.1399    -0.0042 N.1     
   9 N9            -2.7713     6.3856     0.8205 N.am    
  10 C10           -2.6526     5.1241     1.2679 C.2     
  11 C11           -2.5644     4.2266     0.0518 C.3     
  12 C12           -2.6522     5.1813    -1.1165 C.ar    
  13 C13           -2.6319     4.9961    -2.4806 C.ar    
  14 C14           -2.7341     6.0865    -3.3268 C.ar    
  15 C15           -2.8563     7.3586    -2.7979 C.ar    
  16 C16           -2.8768     7.5469    -1.4316 C.ar    
  17 C17           -2.7744     6.4538    -0.5731 C.ar    
  18 O18           -2.6215     4.7709     2.4277 O.2     
  19 C19           -2.8902     7.5545     1.6956 C.3     
  20 C20           -1.5168     8.0922     2.0049 C.ar    
  21 C21           -0.9505     9.0514     1.1857 C.ar    
  22 C22            0.3083     9.5459     1.4670 C.ar    
  23 C23            1.0044     9.0793     2.5726 C.ar    
  24 C24            0.4341     8.1169     3.3930 C.ar    
  25 C25           -0.8274     7.6297     3.1106 C.ar    
  26 O26            2.2431     9.5639     2.8513 O.3     
  27 C27            2.9010     9.0378     4.0056 C.3     
  28 O28           -3.6550     3.3035     0.0307 O.3     
  29 O29           -0.0789     5.5598     0.0337 O.3     
  30 O30            2.3738     1.4916    -0.0122 O.3     
  31 H31            2.0833     4.0907     0.0042 H       
  32 H32           -2.1652     1.5630     0.0208 H       
  33 H33           -2.5361     4.0013    -2.8899 H       
  34 H34           -2.7182     5.9444    -4.3973 H       
  35 H35           -2.9356     8.2093    -3.4584 H       
  36 H36           -2.9725     8.5433    -1.0263 H       
  37 H37           -3.4777     8.3245     1.1955 H       
  38 H38           -3.3845     7.2653     2.6230 H       
  39 H39           -1.4927     9.4140     0.3249 H       
  40 H40            0.7503    10.2949     0.8266 H       
  41 H41            0.9740     7.7520     4.2543 H       
  42 H42           -1.2738     6.8839     3.7516 H       
  43 H43            3.0263     7.9609     3.8931 H       
  44 H44            3.8785     9.5081     4.1126 H       
  45 H45            2.3001     9.2431     4.8915 H       
  46 H46           -3.6633     2.6874     0.7759 H       
  47 H47           -0.0942     5.9581    -0.8473 H       
  48 H48            2.7096     1.3056    -0.8997 H       
@<TRIPOS>BOND
   1    1    2 1
   2    1    8 3
   3    2    3 ar
   4    2    7 ar
   5    3    4 ar
   6    3   30 1
   7    4    5 ar
   8    4   31 1
   9    5    6 ar
  10    5   29 1
  11    6    7 ar
  12    6   11 1
  13    7   32 1
  14    9   10 am
  15    9   17 1
  16    9   19 1
  17   10   11 1
  18   10   18 2
  19   11   12 1
  20   11   28 1
  21   12   13 ar
  22   12   17 ar
  23   13   14 ar
  24   13   33 1
  25   14   15 ar
  26   14   34 1
  27   15   16 ar
  28   15   35 1
  29   16   17 ar
  30   16   36 1
  31   19   20 1
  32   19   37 1
  33   19   38 1
  34   20   21 ar
  35   20   25 ar
  36   21   22 ar
  37   21   39 1
  38   22   23 ar
  39   22   40 1
  40   23   24 ar
  41   23   26 1
  42   24   25 ar
  43   24   41 1
  44   25   42 1
  45   26   27 1
  46   27   43 1
  47   27   44 1
  48   27   45 1
  49   28   46 1
  50   29   47 1
  51   30   48 1

#	End of record

