#	Name: ASD00841476
#	Creating user name:	WinNT
#	Creation time:	15. 06. 2019 18:42

#	Modifying user name:	WinNT
#	Modification time:	15. 06. 2019 18:42

#	Program:	/corina/corina34_cracker 3.40 0067  02.08.2006

@<TRIPOS>MOLECULE
ASD00841476
  84   89    0    0    0
SMALL
NO_CHARGES


@<TRIPOS>ATOM
   1 C1            -0.0051     1.3862     0.0370 C.ar    
   2 C2             0.0093    -0.0007     0.0190 C.ar    
   3 C3             1.2194    -0.6794    -0.0011 C.ar    
   4 C4             2.4062     0.0272    -0.0032 C.ar    
   5 C5             2.3892     1.4098     0.0152 C.ar    
   6 C6             1.1849     2.0884     0.0348 C.ar    
   7 C7             1.2387    -2.1861    -0.0202 C.3     
   8 C8             0.4941    -2.7108    -1.2293 C.2     
   9 N9             2.6177    -2.6806    -0.0122 N.am    
  10 C10            3.4635    -2.3343    -1.0027 C.2     
  11 N11            4.7591    -2.7005    -0.9414 N.am    
  12 O12            3.0577    -1.6914    -1.9517 O.2     
  13 C13            5.2904    -3.3764     0.2501 C.3     
  14 C14            6.5168    -2.6055     0.7485 C.3     
  15 C15            7.5241    -2.4629    -0.3948 C.3     
  16 C16            6.8891    -1.6717    -1.5407 C.3     
  17 C17            5.6656    -2.4371    -2.0673 C.3     
  18 N18            8.7158    -1.7530     0.0886 N.3     
  19 C19            9.7550    -1.7011    -0.9492 C.3     
  20 C20           10.9450    -0.8871    -0.4355 C.3     
  21 N21           11.4628    -1.5037     0.7939 N.3     
  22 C22           10.4236    -1.5555     1.8317 C.3     
  23 C23            9.2336    -2.3695     1.3180 C.3     
  24 H24           11.8347    -2.4231     0.6084 H       
  25 O25            0.7733    -2.5064    -2.3918 O.2     
  26 N26           -0.5343    -3.4452    -0.7728 N.am    
  27 C27            0.4676    -2.7405     1.1556 C.ar    
  28 C28           -0.5786    -3.4830     0.6218 C.ar    
  29 C29            0.6318    -2.6302     2.5180 C.ar    
  30 C30           -0.2526    -3.2643     3.3743 C.ar    
  31 C31           -1.3003    -4.0079     2.8546 C.ar    
  32 C32           -1.4656    -4.1189     1.4873 C.ar    
  33 Cl33          -0.0494    -3.1286     5.0931 Cl      
  34 F34           -2.1640    -4.6271     3.6888 F       
  35 C35           -0.9916    -5.8310    -2.0663 C.ar    
  36 C36            0.1866    -5.9879    -2.7815 C.ar    
  37 C37           -1.6656    -6.9414    -1.5955 C.ar    
  38 C38           -1.1666    -8.2080    -1.8363 C.ar    
  39 C39            0.0078    -8.3670    -2.5490 C.ar    
  40 C40            0.6851    -7.2602    -3.0222 C.ar    
  41 H41            0.3956    -9.3575    -2.7358 H       
  42 O42            0.8512    -4.8973    -3.2459 O.3     
  43 C43            2.0576    -5.1342    -3.9743 C.3     
  44 S44           -1.6242    -4.2167    -1.7522 S.o2    
  45 O45           -2.8042    -4.3914    -0.9800 O.2     
  46 O46           -1.6036    -3.5288    -2.9955 O.2     
  47 O47           -1.1597    -0.6936     0.0215 O.3     
  48 C48           -3.5695    -0.8750     0.0428 C.3     
  49 C49           -2.3669     0.0708     0.0432 C.3     
  50 H50           -0.9457     1.9168     0.0481 H       
  51 H51            3.3483    -0.5006    -0.0188 H       
  52 H52            3.3182     1.9605     0.0143 H       
  53 H53            1.1742     3.1682     0.0492 H       
  54 H54            2.9221    -3.2572     0.7060 H       
  55 H55            4.5288    -3.3950     1.0296 H       
  56 H56            5.5789    -4.3958    -0.0062 H       
  57 H57            6.2109    -1.6164     1.0894 H       
  58 H58            6.9774    -3.1488     1.5736 H       
  59 H59            7.8107    -3.4521    -0.7517 H       
  60 H60            6.5797    -0.6914    -1.1782 H       
  61 H61            7.6147    -1.5504    -2.3449 H       
  62 H62            5.9874    -3.3786    -2.5124 H       
  63 H63            5.1514    -1.8337    -2.8154 H       
  64 H64           10.0823    -2.7132    -1.1870 H       
  65 H65            9.3512    -1.2292    -1.8449 H       
  66 H66           11.7290    -0.8716    -1.1926 H       
  67 H67           10.6236     0.1326    -0.2234 H       
  68 H68           10.8274    -2.0274     2.7274 H       
  69 H69           10.0963    -0.5434     2.0695 H       
  70 H70            8.4496    -2.3850     2.0751 H       
  71 H71            9.5549    -3.3892     1.1059 H       
  72 H72            1.4499    -2.0499     2.9185 H       
  73 H73           -2.2843    -4.6997     1.0888 H       
  74 H74           -2.5830    -6.8198    -1.0387 H       
  75 H75           -1.6946    -9.0747    -1.4669 H       
  76 H76            1.6019    -7.3849    -3.5793 H       
  77 H77            2.7685    -5.6614    -3.3381 H       
  78 H78            1.8381    -5.7399    -4.8535 H       
  79 H79            2.4863    -4.1820    -4.2868 H       
  80 H80           -4.4903    -0.2919     0.0593 H       
  81 H81           -3.5462    -1.4920    -0.8555 H       
  82 H82           -3.5288    -1.5149     0.9242 H       
  83 H83           -2.3902     0.6878     0.9414 H       
  84 H84           -2.4076     0.7107    -0.8383 H       
@<TRIPOS>BOND
   1    1    2 ar
   2    1    6 ar
   3    1   50 1
   4    2    3 ar
   5    2   47 1
   6    3    4 ar
   7    3    7 1
   8    4    5 ar
   9    4   51 1
  10    5    6 ar
  11    5   52 1
  12    6   53 1
  13    7    8 1
  14    7    9 1
  15    7   27 1
  16    8   25 2
  17    8   26 am
  18    9   10 am
  19    9   54 1
  20   10   11 am
  21   10   12 2
  22   11   13 1
  23   11   17 1
  24   13   14 1
  25   13   55 1
  26   13   56 1
  27   14   15 1
  28   14   57 1
  29   14   58 1
  30   15   16 1
  31   15   18 1
  32   15   59 1
  33   16   17 1
  34   16   60 1
  35   16   61 1
  36   17   62 1
  37   17   63 1
  38   18   19 1
  39   18   23 1
  40   19   20 1
  41   19   64 1
  42   19   65 1
  43   20   21 1
  44   20   66 1
  45   20   67 1
  46   21   22 1
  47   21   24 1
  48   22   23 1
  49   22   68 1
  50   22   69 1
  51   23   70 1
  52   23   71 1
  53   26   44 am
  54   26   28 1
  55   27   28 ar
  56   27   29 ar
  57   28   32 ar
  58   29   30 ar
  59   29   72 1
  60   30   31 ar
  61   30   33 1
  62   31   32 ar
  63   31   34 1
  64   32   73 1
  65   35   36 ar
  66   35   37 ar
  67   35   44 1
  68   36   42 1
  69   36   40 ar
  70   37   38 ar
  71   37   74 1
  72   38   39 ar
  73   38   75 1
  74   39   40 ar
  75   39   41 1
  76   40   76 1
  77   42   43 1
  78   43   77 1
  79   43   78 1
  80   43   79 1
  81   44   45 2
  82   44   46 2
  83   47   49 1
  84   48   49 1
  85   48   80 1
  86   48   81 1
  87   48   82 1
  88   49   83 1
  89   49   84 1

#	End of record

