#	Name: ASD00841594
#	Creating user name:	WinNT
#	Creation time:	15. 06. 2019 18:42

#	Modifying user name:	WinNT
#	Modification time:	15. 06. 2019 18:42

#	Program:	/corina/corina34_cracker 3.40 0067  02.08.2006

@<TRIPOS>MOLECULE
ASD00841594
 102  107    0    0    0
SMALL
NO_CHARGES


@<TRIPOS>ATOM
   1 C1            -0.0143     1.3803     0.0275 C.ar    
   2 C2             0.0032    -0.0067     0.0120 C.ar    
   3 C3             1.2148    -0.6826    -0.0059 C.ar    
   4 C4             2.4001     0.0266    -0.0083 C.ar    
   5 C5             2.3799     1.4092     0.0076 C.ar    
   6 C6             1.1740     2.0851     0.0250 C.ar    
   7 C7             1.2376    -2.1894    -0.0223 C.3     
   8 C8             0.4952    -2.7182    -1.2310 C.2     
   9 N9             2.6176    -2.6810    -0.0116 N.am    
  10 C10            3.4640    -2.3347    -1.0016 C.2     
  11 N11            4.7595    -2.7012    -0.9396 N.am    
  12 O12            3.0589    -1.6916    -1.9506 O.2     
  13 C13            5.2900    -3.3772     0.2522 C.3     
  14 C14            6.5163    -2.6065     0.7513 C.3     
  15 C15            7.5242    -2.4641    -0.3915 C.3     
  16 C16            6.8900    -1.6727    -1.5377 C.3     
  17 C17            5.6666    -2.4379    -2.0650 C.3     
  18 C18            8.7653    -1.7249     0.1126 C.3     
  19 C19            9.4020    -2.5163     1.2584 C.3     
  20 C20           10.6762    -1.8038     1.7177 C.3     
  21 N21           11.6129    -1.6990     0.5916 N.3     
  22 C22           11.0414    -0.9030    -0.5021 C.3     
  23 C23            9.7781    -1.5885    -1.0276 C.3     
  24 C24           12.9014    -1.1449     1.0284 C.3     
  25 O25            0.7758    -2.5162    -2.3935 O.2     
  26 N26           -0.5320    -3.4538    -0.7747 N.am    
  27 C27            0.4653    -2.7438     1.1532 C.ar    
  28 C28           -0.5804    -3.4908     0.6160 C.ar    
  29 C29            0.6279    -2.6294     2.5106 C.ar    
  30 C30           -0.2667    -3.2703     3.3753 C.ar    
  31 C31           -1.3202    -4.0229     2.8424 C.ar    
  32 C32           -1.4721    -4.1312     1.4766 C.ar    
  33 F33           -2.1891    -4.6453     3.6686 F       
  34 C34           -0.9818    -5.8417    -2.0671 C.ar    
  35 C35            0.1985    -5.9955    -2.7800 C.ar    
  36 C36           -1.6557    -6.9525    -1.5961 C.ar    
  37 C37           -1.1560    -8.2185    -1.8333 C.ar    
  38 C38            0.0244    -8.3776    -2.5459 C.ar    
  39 C39            0.7019    -7.2650    -3.0197 C.ar    
  40 O40            0.5152    -9.6231    -2.7793 O.3     
  41 O41            0.8605    -4.9028    -3.2432 O.3     
  42 C42           -0.2353   -10.7237    -2.2620 C.3     
  43 C43            2.0691    -5.1359    -3.9692 C.3     
  44 C44            2.6674    -3.7975    -4.4068 C.3     
  45 C45           13.8885    -1.1668    -0.1403 C.3     
  46 C46           12.7026     0.2966     1.5012 C.3     
  47 S47           -1.6183    -4.2284    -1.7557 S.o2    
  48 O48           -2.7995    -4.4048    -0.9857 O.2     
  49 O49           -1.5966    -3.5416    -2.9995 O.2     
  50 O50           -1.1643    -0.7022     0.0148 O.3     
  51 C51           -3.5737    -0.8890     0.0344 C.3     
  52 C52           -2.3732     0.0595     0.0341 C.3     
  53 C53           -0.1055    -3.1575     4.7937 C.1     
  54 N54            0.0224    -3.0681     5.9189 N.1     
  55 H55           -0.9561     1.9087     0.0369 H       
  56 H56            3.3434    -0.4991    -0.0222 H       
  57 H57            3.3077     1.9620     0.0065 H       
  58 H58            1.1609     3.1649     0.0374 H       
  59 H59            2.9222    -3.2557     0.7081 H       
  60 H60            4.5280    -3.3957     1.0314 H       
  61 H61            5.5785    -4.3966    -0.0040 H       
  62 H62            6.2104    -1.6173     1.0920 H       
  63 H63            6.9764    -3.1499     1.5766 H       
  64 H64            7.8109    -3.4533    -0.7483 H       
  65 H65            6.5806    -0.6924    -1.1754 H       
  66 H66            7.6161    -1.5516    -2.3416 H       
  67 H67            5.9884    -3.3794    -2.5099 H       
  68 H68            5.1529    -1.8344    -2.8133 H       
  69 H69            8.4802    -0.7347     0.4682 H       
  70 H70            8.7007    -2.5801     2.0904 H       
  71 H71            9.6505    -3.5199     0.9134 H       
  72 H72           10.4251    -0.8053     2.0754 H       
  73 H73           11.1397    -2.3724     2.5239 H       
  74 H74           10.7886     0.0913    -0.1340 H       
  75 H75           11.7701    -0.8172    -1.3081 H       
  76 H76           10.0325    -2.5776    -1.4086 H       
  77 H77            9.3455    -0.9895    -1.8289 H       
  78 H78           13.2957    -1.7451     1.8484 H       
  79 H79            1.4443    -2.0466     2.9108 H       
  80 H80           -2.2864    -4.7132     1.0709 H       
  81 H81           -2.5743    -6.8307    -1.0413 H       
  82 H82           -1.6840    -9.0850    -1.4635 H       
  83 H83            1.6203    -7.3868    -3.5748 H       
  84 H84            0.2654   -11.6573    -2.5181 H       
  85 H85           -0.3084   -10.6360    -1.1780 H       
  86 H86           -1.2355   -10.7170    -2.6953 H       
  87 H87            2.7805    -5.6607    -3.3315 H       
  88 H88            1.8534    -5.7424    -4.8488 H       
  89 H89            2.8832    -3.1910    -3.5272 H       
  90 H90            3.5893    -3.9753    -4.9605 H       
  91 H91            1.9561    -3.2726    -5.0444 H       
  92 H92           13.4941    -0.5666    -0.9603 H       
  93 H93           14.8445    -0.7557     0.1838 H       
  94 H94           14.0300    -2.1937    -0.4772 H       
  95 H95           11.9994     0.3122     2.3338 H       
  96 H96           13.6587     0.7077     1.8253 H       
  97 H97           12.3083     0.8968     0.6812 H       
  98 H98           -3.5482    -1.5076    -0.8628 H       
  99 H99           -3.5323    -1.5273     0.9170 H       
 100 H100          -4.4958    -0.3080     0.0491 H       
 101 H101          -2.3986     0.6780     0.9312 H       
 102 H102          -2.4146     0.6977    -0.8486 H       
@<TRIPOS>BOND
   1    1    2 ar
   2    1    6 ar
   3    1   55 1
   4    2    3 ar
   5    2   50 1
   6    3    4 ar
   7    3    7 1
   8    4    5 ar
   9    4   56 1
  10    5    6 ar
  11    5   57 1
  12    6   58 1
  13    7    8 1
  14    7    9 1
  15    7   27 1
  16    8   25 2
  17    8   26 am
  18    9   10 am
  19    9   59 1
  20   10   11 am
  21   10   12 2
  22   11   13 1
  23   11   17 1
  24   13   14 1
  25   13   60 1
  26   13   61 1
  27   14   15 1
  28   14   62 1
  29   14   63 1
  30   15   16 1
  31   15   18 1
  32   15   64 1
  33   16   17 1
  34   16   65 1
  35   16   66 1
  36   17   67 1
  37   17   68 1
  38   18   19 1
  39   18   23 1
  40   18   69 1
  41   19   20 1
  42   19   70 1
  43   19   71 1
  44   20   21 1
  45   20   72 1
  46   20   73 1
  47   21   22 1
  48   21   24 1
  49   22   23 1
  50   22   74 1
  51   22   75 1
  52   23   76 1
  53   23   77 1
  54   24   45 1
  55   24   46 1
  56   24   78 1
  57   26   47 am
  58   26   28 1
  59   27   28 ar
  60   27   29 ar
  61   28   32 ar
  62   29   30 ar
  63   29   79 1
  64   30   31 ar
  65   30   53 1
  66   31   32 ar
  67   31   33 1
  68   32   80 1
  69   34   35 ar
  70   34   36 ar
  71   34   47 1
  72   35   41 1
  73   35   39 ar
  74   36   37 ar
  75   36   81 1
  76   37   38 ar
  77   37   82 1
  78   38   39 ar
  79   38   40 1
  80   39   83 1
  81   40   42 1
  82   41   43 1
  83   42   84 1
  84   42   85 1
  85   42   86 1
  86   43   44 1
  87   43   87 1
  88   43   88 1
  89   44   89 1
  90   44   90 1
  91   44   91 1
  92   45   92 1
  93   45   93 1
  94   45   94 1
  95   46   95 1
  96   46   96 1
  97   46   97 1
  98   47   48 2
  99   47   49 2
 100   50   52 1
 101   51   52 1
 102   51   98 1
 103   51   99 1
 104   51  100 1
 105   52  101 1
 106   52  102 1
 107   53   54 3

#	End of record

