#	Name: ASD00100086
#	Creating user name:	WinNT
#	Creation time:	15. 06. 2019 18:30

#	Modifying user name:	WinNT
#	Modification time:	15. 06. 2019 18:30

#	Program:	/corina/corina34_cracker 3.40 0067  02.08.2006

@<TRIPOS>MOLECULE
ASD00100086
  73   78    0    0    0
SMALL
NO_CHARGES


@<TRIPOS>ATOM
   1 C1            -0.0180     1.4742     0.0101 C.2     
   2 C2             0.0021    -0.0041     0.0020 C.ar    
   3 C3             1.2184    -0.6885    -0.0133 C.ar    
   4 C4             1.2301    -2.0680    -0.0203 C.ar    
   5 C5             0.0396    -2.7730    -0.0127 C.ar    
   6 C6            -1.1695    -2.1007     0.0024 C.ar    
   7 C7            -1.1952    -0.7214     0.0154 C.ar    
   8 O8             1.0263     2.0963     0.0035 O.2     
   9 N9            -1.1942     2.1322     0.0193 N.am    
  10 C10            0.0601    -4.2798    -0.0215 C.3     
  11 C11           -0.5974    -5.0021     1.1562 C.3     
  12 C12           -1.2740    -5.0033    -0.2160 C.3     
  13 C13           -1.2141     3.5970     0.0274 C.3     
  14 C14           -2.5311     4.0925    -0.5733 C.3     
  15 C15           -2.5518     5.6223    -0.5649 C.3     
  16 C16           -2.4262     6.1262     0.8743 C.3     
  17 C17           -1.1092     5.6307     1.4750 C.3     
  18 C18           -1.0885     4.1009     1.4665 C.3     
  19 C19           -2.4470     7.6560     0.8827 C.3     
  20 C20           -2.4471     8.1581     2.3279 C.3     
  21 N21           -2.4670     9.6270     2.3360 N.3     
  22 C22           -2.7058    10.1426     3.6901 C.3     
  23 C23           -2.8648    11.6638     3.6374 C.3     
  24 C24           -1.5940    12.2850     3.0513 C.3     
  25 C25           -1.3415    11.6953     1.6609 C.3     
  26 C26           -1.2266    10.1732     1.7709 C.3     
  27 O27           -2.5442    15.7575     2.3729 O.3     
  28 C28           -2.6985    14.4294     2.2310 C.2     
  29 C29           -1.7677    13.7779     2.9412 C.2     
  30 C30           -0.9515    14.8106     3.5909 C.ar    
  31 C31           -1.5037    16.0368     3.1837 C.ar    
  32 C32            0.1501    14.7878     4.4444 C.ar    
  33 C33            0.6935    15.9742     4.8859 C.ar    
  34 C34            0.1489    17.1852     4.4843 C.ar    
  35 C35           -0.9406    17.2214     3.6404 C.ar    
  36 H36            2.1484    -0.1393    -0.0199 H       
  37 H37            2.1706    -2.5988    -0.0321 H       
  38 H38           -2.0953    -2.6569     0.0083 H       
  39 H39           -2.1396    -0.1978     0.0318 H       
  40 H40           -2.0276     1.6358     0.0206 H       
  41 H41            0.9485    -4.7354    -0.4588 H       
  42 H42           -0.1417    -5.9331     1.4935 H       
  43 H43           -1.0447    -4.3874     1.9374 H       
  44 H44           -2.1664    -4.3894    -0.3377 H       
  45 H45           -1.2634    -5.9350    -0.7816 H       
  46 H46           -0.3801     3.9750    -0.5640 H       
  47 H47           -2.6206     3.7336    -1.5986 H       
  48 H48           -3.3651     3.7146     0.0180 H       
  49 H49           -1.7178     6.0003    -1.1563 H       
  50 H50           -3.4901     5.9753    -0.9929 H       
  51 H51           -3.2602     5.7483     1.4656 H       
  52 H52           -0.2752     6.0086     0.8836 H       
  53 H53           -1.0197     5.9896     2.5003 H       
  54 H54           -1.9225     3.7229     2.0579 H       
  55 H55           -0.1502     3.7479     1.8945 H       
  56 H56           -1.5645     8.0342     0.3667 H       
  57 H57           -3.3442     8.0100     0.3750 H       
  58 H58           -3.3296     7.7799     2.8439 H       
  59 H59           -1.5498     7.8041     2.8356 H       
  60 H60           -3.6146     9.6962     4.0937 H       
  61 H61           -1.8610     9.8877     4.3300 H       
  62 H62           -3.7180    11.9189     3.0088 H       
  63 H63           -3.0265    12.0478     4.6446 H       
  64 H64           -0.7471    12.0628     3.7005 H       
  65 H65           -2.1706    11.9509     1.0012 H       
  66 H66           -0.4148    12.1019     1.2560 H       
  67 H67           -0.3887     9.9182     2.4198 H       
  68 H68           -1.0610     9.7490     0.7806 H       
  69 H69           -3.4622    13.9564     1.6315 H       
  70 H70            0.5749    13.8457     4.7582 H       
  71 H71            1.5470    15.9615     5.5476 H       
  72 H72            0.5827    18.1093     4.8367 H       
  73 H73           -1.3558    18.1702     3.3344 H       
@<TRIPOS>BOND
   1    1    2 1
   2    1    8 2
   3    1    9 am
   4    2    3 ar
   5    2    7 ar
   6    3    4 ar
   7    3   36 1
   8    4    5 ar
   9    4   37 1
  10    5    6 ar
  11    5   10 1
  12    6    7 ar
  13    6   38 1
  14    7   39 1
  15    9   13 1
  16    9   40 1
  17   10   11 1
  18   10   12 1
  19   10   41 1
  20   11   12 1
  21   11   42 1
  22   11   43 1
  23   12   44 1
  24   12   45 1
  25   13   14 1
  26   13   18 1
  27   13   46 1
  28   14   15 1
  29   14   47 1
  30   14   48 1
  31   15   16 1
  32   15   49 1
  33   15   50 1
  34   16   17 1
  35   16   19 1
  36   16   51 1
  37   17   18 1
  38   17   52 1
  39   17   53 1
  40   18   54 1
  41   18   55 1
  42   19   20 1
  43   19   56 1
  44   19   57 1
  45   20   21 1
  46   20   58 1
  47   20   59 1
  48   21   22 1
  49   21   26 1
  50   22   23 1
  51   22   60 1
  52   22   61 1
  53   23   24 1
  54   23   62 1
  55   23   63 1
  56   24   25 1
  57   24   29 1
  58   24   64 1
  59   25   26 1
  60   25   65 1
  61   25   66 1
  62   26   67 1
  63   26   68 1
  64   27   28 1
  65   27   31 1
  66   28   29 2
  67   28   69 1
  68   29   30 1
  69   30   31 ar
  70   30   32 ar
  71   31   35 ar
  72   32   33 ar
  73   32   70 1
  74   33   34 ar
  75   33   71 1
  76   34   35 ar
  77   34   72 1
  78   35   73 1

#	End of record

