#	Name: ASD05490149
#	Creating user name:	WinNT
#	Creation time:	15. 06. 2019 21:01

#	Modifying user name:	WinNT
#	Modification time:	15. 06. 2019 21:01

#	Program:	/corina/corina34_cracker 3.40 0067  02.08.2006

@<TRIPOS>MOLECULE
ASD05490149
  38   39    0    0    0
SMALL
NO_CHARGES


@<TRIPOS>ATOM
   1 N1             0.0586     1.2561     0.1905 N.ar    
   2 C2             1.1637     1.9796     0.1599 C.ar    
   3 C3             2.4028     1.3776     0.0798 C.ar    
   4 C4             2.4820    -0.0145     0.0313 C.ar    
   5 C5             1.2989    -0.7457     0.0659 C.ar    
   6 C6             0.0900    -0.0682     0.1464 C.ar    
   7 Cl7            1.0555     3.7112     0.2208 Cl      
   8 N8            -1.1000    -0.7862     0.1822 N.pl3   
   9 N9             3.7179    -0.6578    -0.0504 N.am    
  10 C10            4.2427    -1.0733    -1.3536 C.3     
  11 C11            5.0055     0.0682    -1.9750 C.ar    
  12 C12            6.3694     0.1825    -1.7866 C.ar    
  13 C13            4.3479     1.0137    -2.7478 C.ar    
  14 N14            7.0443     1.1785    -2.3271 N.ar    
  15 C15            6.4516     2.0987    -3.0636 C.ar    
  16 C16            5.0895     2.0460    -3.3000 C.ar    
  17 Br17           7.4764     3.5019    -3.8098 Br      
  18 N18            1.3287    -2.2248     0.0165 N.pl3   
  19 O19            1.4743    -2.8656     1.0420 O.2     
  20 O20            1.2078    -2.8011    -1.0497 O.2     
  21 C21            4.4285    -0.8969     1.0696 C.2     
  22 O22            5.5045    -1.4570     0.9984 O.2     
  23 O23            3.9462    -0.5151     2.2672 O.3     
  24 C24            4.0585    -0.3009     4.6904 C.3     
  25 C25            4.7653    -0.8049     3.4305 C.3     
  26 H26            3.3008     1.9770     0.0547 H       
  27 H27           -1.0827    -1.7555     0.1509 H       
  28 H28           -1.9475    -0.3178     0.2385 H       
  29 H29            4.9085    -1.9262    -1.2220 H       
  30 H30            3.4157    -1.3551    -2.0053 H       
  31 H31            6.8891    -0.5522    -1.1895 H       
  32 H32            3.2831     0.9469    -2.9155 H       
  33 H33            4.6095     2.8019    -3.9040 H       
  34 H34            3.9035     0.7753     4.6141 H       
  35 H35            3.0949    -0.8005     4.7909 H       
  36 H36            4.6733    -0.5185     5.5637 H       
  37 H37            4.9203    -1.8811     3.5068 H       
  38 H38            5.7289    -0.3053     3.3301 H       
@<TRIPOS>BOND
   1    1    2 ar
   2    1    6 ar
   3    2    3 ar
   4    2    7 1
   5    3    4 ar
   6    3   26 1
   7    4    5 ar
   8    4    9 1
   9    5    6 ar
  10    5   18 1
  11    6    8 1
  12    8   27 1
  13    8   28 1
  14    9   10 1
  15    9   21 am
  16   10   11 1
  17   10   29 1
  18   10   30 1
  19   11   12 ar
  20   11   13 ar
  21   12   14 ar
  22   12   31 1
  23   13   16 ar
  24   13   32 1
  25   14   15 ar
  26   15   16 ar
  27   15   17 1
  28   16   33 1
  29   18   19 2
  30   18   20 2
  31   21   22 2
  32   21   23 1
  33   23   25 1
  34   24   25 1
  35   24   34 1
  36   24   35 1
  37   24   36 1
  38   25   37 1
  39   25   38 1

#	End of record

