#	Name: ASD01870723
#	Creating user name:	WinNT
#	Creation time:	15. 06. 2019 19:39

#	Modifying user name:	WinNT
#	Modification time:	15. 06. 2019 19:39

#	Program:	/corina/corina34_cracker 3.40 0067  02.08.2006

@<TRIPOS>MOLECULE
ASD01870723
  44   47    0    0    0
SMALL
NO_CHARGES


@<TRIPOS>ATOM
   1 C1            -0.0911     1.1894    -0.2228 C.ar    
   2 C2            -0.0720    -0.1955    -0.2664 C.ar    
   3 C3             1.1295    -0.8778    -0.2872 C.ar    
   4 C4             2.3280    -0.1884    -0.2643 C.ar    
   5 C5             1.1110     1.9059    -0.1995 C.ar    
   6 C6             1.3642     3.3548    -0.1542 C.2     
   7 C7             2.3343     1.2067    -0.2198 C.ar    
   8 C8             3.4559     2.1623    -0.1885 C.2     
   9 C9             2.8617     3.5502    -0.1474 C.3     
  10 C10            3.2892     4.3370    -1.3595 C.ar    
  11 C11            3.9377     5.5479    -1.2041 C.ar    
  12 C12            4.3298     6.2696    -2.3160 C.ar    
  13 C13            4.0738     5.7803    -3.5832 C.ar    
  14 C14            3.4261     4.5690    -3.7386 C.ar    
  15 C15            3.0379     3.8452    -2.6268 C.ar    
  16 O16            0.5255     4.2301    -0.1272 O.2     
  17 O17            4.6362     1.8857    -0.1956 O.2     
  18 C18            4.5004     6.5677    -4.7953 C.3     
  19 C19            5.8954     6.1600    -5.1937 C.2     
  20 C20            6.5438     6.7908    -6.3594 C.ar    
  21 O21            6.4849     5.3140    -4.5565 O.2     
  22 N22            5.8522     7.6284    -7.1255 N.ar    
  23 C23            7.8796     6.5078    -6.6456 C.ar    
  24 C24            8.4743     7.1087    -7.7440 C.ar    
  25 C25            7.7144     7.9712    -8.5181 C.ar    
  26 C26            6.3928     8.2110    -8.1721 C.ar    
  27 C27            8.6647     5.5628    -5.7729 C.3     
  28 F28           -1.2704     1.8484    -0.2083 F       
  29 H29           -1.0017    -0.7449    -0.2839 H       
  30 H30            1.1325    -1.9573    -0.3212 H       
  31 H31            3.2617    -0.7309    -0.2804 H       
  32 H32            3.1701     4.0635     0.7633 H       
  33 H33            4.1377     5.9302    -0.2140 H       
  34 H34            4.8358     7.2160    -2.1945 H       
  35 H35            3.2258     4.1869    -4.7287 H       
  36 H36            2.5351     2.8971    -2.7482 H       
  37 H37            3.8144     6.3676    -5.6184 H       
  38 H38            4.4859     7.6320    -4.5608 H       
  39 H39            9.5067     6.9096    -7.9907 H       
  40 H40            8.1484     8.4553    -9.3805 H       
  41 H41            5.7996     8.8859    -8.7713 H       
  42 H42            8.4648     4.5356    -6.0779 H       
  43 H43            9.7294     5.7720    -5.8767 H       
  44 H44            8.3677     5.6972    -4.7328 H       
@<TRIPOS>BOND
   1    1    2 ar
   2    1    5 ar
   3    1   28 1
   4    2    3 ar
   5    2   29 1
   6    3    4 ar
   7    3   30 1
   8    4    7 ar
   9    4   31 1
  10    5    7 ar
  11    5    6 1
  12    6    9 1
  13    6   16 2
  14    7    8 1
  15    8    9 1
  16    8   17 2
  17    9   10 1
  18    9   32 1
  19   10   11 ar
  20   10   15 ar
  21   11   12 ar
  22   11   33 1
  23   12   13 ar
  24   12   34 1
  25   13   14 ar
  26   13   18 1
  27   14   15 ar
  28   14   35 1
  29   15   36 1
  30   18   19 1
  31   18   37 1
  32   18   38 1
  33   19   20 1
  34   19   21 2
  35   20   23 ar
  36   20   22 ar
  37   22   26 ar
  38   23   24 ar
  39   23   27 1
  40   24   25 ar
  41   24   39 1
  42   25   26 ar
  43   25   40 1
  44   26   41 1
  45   27   42 1
  46   27   43 1
  47   27   44 1

#	End of record

