#	Name: ASD03740146
#	Creating user name:	WinNT
#	Creation time:	15. 06. 2019 20:46

#	Modifying user name:	WinNT
#	Modification time:	15. 06. 2019 20:46

#	Program:	/corina/corina34_cracker 3.40 0067  02.08.2006

@<TRIPOS>MOLECULE
ASD03740146
  62   66    0    0    0
SMALL
NO_CHARGES


@<TRIPOS>ATOM
   1 C1            -0.1872     1.3976     0.1384 C.ar    
   2 C2            -0.2042     0.0177     0.2973 C.ar    
   3 C3             0.9576    -0.6818     0.4640 C.ar    
   4 C4             2.1765    -0.0084     0.4750 C.ar    
   5 C5             2.1952     1.3905     0.3135 C.ar    
   6 C6             0.9930     2.0839     0.1452 C.ar    
   7 N7             3.4798    -0.4079     0.6171 N.pl3   
   8 N8             4.3139     0.7126     0.5478 N.2     
   9 C9             3.6008     1.7913     0.3700 C.2     
  10 O10            4.0785     3.0589     0.2571 O.3     
  11 C11            3.9279    -1.7891     0.8115 C.3     
  12 C12            4.1845    -2.4274    -0.5293 C.ar    
  13 C13            5.4389    -2.3457    -1.1047 C.ar    
  14 C14            5.6748    -2.9309    -2.3344 C.ar    
  15 C15            4.6554    -3.5985    -2.9895 C.ar    
  16 C16            3.4003    -3.6799    -2.4132 C.ar    
  17 C17            3.1670    -3.0992    -1.1808 C.ar    
  18 C18            5.4949     3.2283     0.3413 C.3     
  19 C19            5.8408     4.7113     0.1936 C.3     
  20 N20            5.3051     5.4558     1.3411 N.3     
  21 C21            3.8263     5.4345     1.3431 C.3     
  22 Cl22           4.9509    -4.3332    -4.5344 Cl      
  23 C23            3.3558     6.7871     1.9091 C.3     
  24 C24            4.6528     7.5786     2.1943 C.3     
  25 C25            5.6894     6.8889     1.2722 C.3     
  26 C26            7.1083     7.0938     1.8066 C.3     
  27 N27            7.4409     8.5243     1.7769 N.3     
  28 C28            8.7432     8.7775     2.4202 C.3     
  29 C29            9.6345     9.4919     1.3826 C.3     
  30 C30            8.6030    10.1107     0.4028 C.3     
  31 C31            7.4966     9.0266     0.3875 C.3     
  32 H32           -1.1160     1.9320     0.0038 H       
  33 H33           -1.1473    -0.5086     0.2894 H       
  34 H34            0.9307    -1.7544     0.5872 H       
  35 H35            0.9979     3.1567     0.0203 H       
  36 H36            4.8467    -1.7939     1.3980 H       
  37 H37            3.1569    -2.3503     1.3394 H       
  38 H38            6.2345    -1.8242    -0.5934 H       
  39 H39            6.6547    -2.8667    -2.7840 H       
  40 H40            2.6041    -4.2010    -2.9241 H       
  41 H41            2.1873    -3.1627    -0.7308 H       
  42 H42            5.8471     2.8676     1.3077 H       
  43 H43            5.9766     2.6617    -0.4555 H       
  44 H44            6.9237     4.8299     0.1570 H       
  45 H45            5.4018     5.0969    -0.7266 H       
  46 H46            3.4554     5.3084     0.3259 H       
  47 H47            3.4675     4.6223     1.9753 H       
  48 H48            2.7455     7.3129     1.1748 H       
  49 H49            2.7940     6.6366     2.8310 H       
  50 H50            4.5324     8.6273     1.9226 H       
  51 H51            4.9421     7.4809     3.2407 H       
  52 H52            5.6042     7.2614     0.2514 H       
  53 H53            7.1667     6.7284     2.8319 H       
  54 H54            7.8140     6.5437     1.1842 H       
  55 H55            8.6075     9.4149     3.2939 H       
  56 H56            9.2011     7.8332     2.7149 H       
  57 H57           10.2303    10.2712     1.8577 H       
  58 H58           10.2748     8.7763     0.8668 H       
  59 H59            8.2184    11.0557     0.7863 H       
  60 H60            9.0359    10.2407    -0.5891 H       
  61 H61            7.7638     8.2213    -0.2967 H       
  62 H62            6.5398     9.4649     0.1038 H       
@<TRIPOS>BOND
   1    1    2 ar
   2    1    6 ar
   3    1   32 1
   4    2    3 ar
   5    2   33 1
   6    3    4 ar
   7    3   34 1
   8    4    5 ar
   9    4    7 1
  10    5    6 ar
  11    5    9 1
  12    6   35 1
  13    7    8 1
  14    7   11 1
  15    8    9 2
  16    9   10 1
  17   10   18 1
  18   11   12 1
  19   11   36 1
  20   11   37 1
  21   12   13 ar
  22   12   17 ar
  23   13   14 ar
  24   13   38 1
  25   14   15 ar
  26   14   39 1
  27   15   16 ar
  28   15   22 1
  29   16   17 ar
  30   16   40 1
  31   17   41 1
  32   18   19 1
  33   18   42 1
  34   18   43 1
  35   19   20 1
  36   19   44 1
  37   19   45 1
  38   20   21 1
  39   20   25 1
  40   21   23 1
  41   21   46 1
  42   21   47 1
  43   23   24 1
  44   23   48 1
  45   23   49 1
  46   24   25 1
  47   24   50 1
  48   24   51 1
  49   25   26 1
  50   25   52 1
  51   26   27 1
  52   26   53 1
  53   26   54 1
  54   27   28 1
  55   27   31 1
  56   28   29 1
  57   28   55 1
  58   28   56 1
  59   29   30 1
  60   29   57 1
  61   29   58 1
  62   30   31 1
  63   30   59 1
  64   30   60 1
  65   31   61 1
  66   31   62 1

#	End of record

