#	Name: ASD01918180
#	Creating user name:	WinNT
#	Creation time:	15. 06. 2019 20:10

#	Modifying user name:	WinNT
#	Modification time:	15. 06. 2019 20:10

#	Program:	/corina/corina34_cracker 3.40 0067  02.08.2006

@<TRIPOS>MOLECULE
ASD01918180
  41   43    0    0    0
SMALL
NO_CHARGES


@<TRIPOS>ATOM
   1 C1            -0.0019     1.3693     0.0152 C.ar    
   2 C2             0.0264    -0.0120     0.0279 C.ar    
   3 C3             1.2530    -0.6828     0.0482 C.ar    
   4 C4             2.4456     0.0471     0.0556 C.ar    
   5 C5             2.4105     1.4246     0.0433 C.ar    
   6 C6             1.1917     2.0914     0.0226 C.ar    
   7 C7             1.2878    -2.1143     0.0619 C.1     
   8 C8             1.3163    -3.2879     0.0732 C.1     
   9 C9             1.3511    -4.7194     0.0869 C.ar    
  10 N10            2.5210    -5.3512     0.1062 N.ar    
  11 C11            2.5944    -6.6664     0.1193 C.ar    
  12 C12            1.4499    -7.4423     0.1130 C.ar    
  13 C13            0.2063    -6.8244     0.0929 C.ar    
  14 C14            0.1550    -5.4427     0.0857 C.ar    
  15 O15           -1.1930     2.0247    -0.0103 O.3     
  16 C16           -2.3752     1.2219    -0.0226 C.3     
  17 N17            1.1614     3.4891     0.0097 N.am    
  18 C18            2.2047     4.1812    -0.4894 C.2     
  19 C19            2.1372     5.6540    -0.5830 C.ar    
  20 O20            3.2013     3.5934    -0.8627 O.2     
  21 C21            3.1435     7.7513    -1.1899 C.ar    
  22 C22            3.2144     6.3742    -1.1053 C.ar    
  23 C23            0.9941     6.3325    -0.1552 C.ar    
  24 C24            0.9374     7.7073    -0.2457 C.ar    
  25 C25            2.0100     8.4158    -0.7592 C.ar    
  26 Cl26           4.6383     5.5411    -1.6458 Cl      
  27 H27           -0.8969    -0.5723     0.0225 H       
  28 H28            3.3943    -0.4687     0.0713 H       
  29 H29            3.3324     1.9871     0.0493 H       
  30 H30            3.5622    -7.1454     0.1349 H       
  31 H31            1.5225    -8.5198     0.1231 H       
  32 H32           -0.7009    -7.4103     0.0873 H       
  33 H33           -0.7953    -4.9298     0.0702 H       
  34 H34           -2.3725     0.5848    -0.9070 H       
  35 H35           -2.4018     0.6006     0.8726 H       
  36 H36           -3.2529     1.8679    -0.0428 H       
  37 H37            0.3896     3.9608     0.3600 H       
  38 H38            3.9753     8.3100    -1.5930 H       
  39 H39            0.1560     5.7815     0.2454 H       
  40 H40            0.0535     8.2327     0.0846 H       
  41 H41            1.9596     9.4924    -0.8276 H       
@<TRIPOS>BOND
   1    1    2 ar
   2    1    6 ar
   3    1   15 1
   4    2    3 ar
   5    2   27 1
   6    3    4 ar
   7    3    7 1
   8    4    5 ar
   9    4   28 1
  10    5    6 ar
  11    5   29 1
  12    6   17 1
  13    7    8 3
  14    8    9 1
  15    9   10 ar
  16    9   14 ar
  17   10   11 ar
  18   11   12 ar
  19   11   30 1
  20   12   13 ar
  21   12   31 1
  22   13   14 ar
  23   13   32 1
  24   14   33 1
  25   15   16 1
  26   16   34 1
  27   16   35 1
  28   16   36 1
  29   17   18 am
  30   17   37 1
  31   18   19 1
  32   18   20 2
  33   19   23 ar
  34   19   22 ar
  35   21   22 ar
  36   21   25 ar
  37   21   38 1
  38   22   26 1
  39   23   24 ar
  40   23   39 1
  41   24   25 ar
  42   24   40 1
  43   25   41 1

#	End of record

