#	Name: ASD05430051
#	Creating user name:	WinNT
#	Creation time:	15. 06. 2019 20:59

#	Modifying user name:	WinNT
#	Modification time:	15. 06. 2019 20:59

#	Program:	/corina/corina34_cracker 3.40 0067  02.08.2006

@<TRIPOS>MOLECULE
ASD05430051
  63   68    0    0    0
SMALL
NO_CHARGES


@<TRIPOS>ATOM
   1 C1            -0.0103     1.3699    -0.1533 C.ar    
   2 C2             0.0203    -0.0142    -0.3187 C.ar    
   3 C3             1.2359    -0.6823    -0.3864 C.ar    
   4 C4             2.4180     0.0194    -0.2899 C.ar    
   5 C5             2.3952     1.4081    -0.1238 C.ar    
   6 C6             1.1713     2.0806    -0.0561 C.ar    
   7 O7             4.9107     0.1322     0.2166 O.3     
   8 C8             4.8303     1.4988     0.0671 C.2     
   9 C9             3.6564     2.1594    -0.0205 C.2     
  10 C10            5.8838    -0.3356     1.1473 C.3     
  11 C11            7.3013     0.0742     0.7456 C.3     
  12 N12            7.2984     1.4989     0.4197 N.pl3   
  13 C13            6.1466     2.1823     0.0110 C.2     
  14 C14           -1.5017    -1.6534    -1.3804 C.2     
  15 N15           -1.1796    -0.7336    -0.4166 N.pl3   
  16 C16           -2.7406    -2.0986    -1.0962 C.2     
  17 N17           -3.1676    -1.4711     0.0095 N.2     
  18 C18           -2.2414    -0.6509     0.4261 C.2     
  19 C19           -3.5137    -3.1242    -1.8847 C.3     
  20 C20            8.3736     2.4859     0.4544 C.3     
  21 O21            7.8490     3.5738    -0.3368 O.3     
  22 N22            6.4433     3.3662    -0.3950 N.2     
  23 C23            8.6375     2.9355     1.8683 C.ar    
  24 C24            9.6459     1.9210    -0.1806 C.3     
  25 O25           10.7115     2.8610    -0.0294 O.3     
  26 N26            7.9948     2.3595     2.8654 N.ar    
  27 C27            9.5542     3.9423     2.1044 C.ar    
  28 C28            9.7909     4.3491     3.4083 C.ar    
  29 C29            9.0922     3.7239     4.4323 C.ar    
  30 C30            8.1930     2.7189     4.1184 C.ar    
  31 F31            9.2910     4.0875     5.7182 F       
  32 C32           -1.1587     3.4392     0.0776 C.3     
  33 O33           -1.2021     2.0211    -0.0931 O.3     
  34 C34            5.5654     0.1923     2.5588 C.3     
  35 C35            5.3199    -1.0892     3.3880 C.3     
  36 O36            6.0321    -2.1287     2.6815 O.3     
  37 C37            5.7985    -1.8676     1.2792 C.3     
  38 H38            1.2549    -1.7545    -0.5146 H       
  39 H39            3.3619    -0.5029    -0.3421 H       
  40 H40            1.1491     3.1528     0.0718 H       
  41 H41            3.6428     3.2393    -0.0147 H       
  42 H42            7.9846    -0.1103     1.5745 H       
  43 H43            7.6153    -0.5000    -0.1261 H       
  44 H44           -0.8827    -1.9591    -2.2110 H       
  45 H45           -2.3081    -0.0137     1.2955 H       
  46 H46           -3.2985    -4.1194    -1.4956 H       
  47 H47           -4.5811    -2.9222    -1.7953 H       
  48 H48           -3.2207    -3.0728    -2.9333 H       
  49 H49            9.9134     0.9861     0.3118 H       
  50 H50            9.4718     1.7365    -1.2407 H       
  51 H51           11.5511     2.5683    -0.4097 H       
  52 H52           10.0800     4.4063     1.2830 H       
  53 H53           10.5020     5.1333     3.6225 H       
  54 H54            7.6446     2.2270     4.9081 H       
  55 H55           -0.6208     3.8893    -0.7569 H       
  56 H56           -2.1747     3.8327     0.1094 H       
  57 H57           -0.6474     3.6775     1.0103 H       
  58 H58            6.4122     0.7501     2.9586 H       
  59 H59            4.6703     0.8141     2.5416 H       
  60 H60            5.7203    -0.9720     4.3950 H       
  61 H61            4.2548    -1.3179     3.4265 H       
  62 H62            4.8090    -2.2193     0.9871 H       
  63 H63            6.5669    -2.3446     0.6708 H       
@<TRIPOS>BOND
   1    1    2 ar
   2    1    6 ar
   3    1   33 1
   4    2    3 ar
   5    2   15 1
   6    3    4 ar
   7    3   38 1
   8    4    5 ar
   9    4   39 1
  10    5    6 ar
  11    5    9 1
  12    6   40 1
  13    7    8 1
  14    7   10 1
  15    8    9 2
  16    8   13 1
  17    9   41 1
  18   10   11 1
  19   10   34 1
  20   10   37 1
  21   11   12 1
  22   11   42 1
  23   11   43 1
  24   12   13 1
  25   12   20 1
  26   13   22 2
  27   14   15 1
  28   14   16 2
  29   14   44 1
  30   15   18 1
  31   16   17 1
  32   16   19 1
  33   17   18 2
  34   18   45 1
  35   19   46 1
  36   19   47 1
  37   19   48 1
  38   20   21 1
  39   20   23 1
  40   20   24 1
  41   21   22 1
  42   23   26 ar
  43   23   27 ar
  44   24   25 1
  45   24   49 1
  46   24   50 1
  47   25   51 1
  48   26   30 ar
  49   27   28 ar
  50   27   52 1
  51   28   29 ar
  52   28   53 1
  53   29   30 ar
  54   29   31 1
  55   30   54 1
  56   32   33 1
  57   32   55 1
  58   32   56 1
  59   32   57 1
  60   34   35 1
  61   34   58 1
  62   34   59 1
  63   35   36 1
  64   35   60 1
  65   35   61 1
  66   36   37 1
  67   37   62 1
  68   37   63 1

#	End of record

