#	Name: ASD01148902
#	Creating user name:	WinNT
#	Creation time:	15. 06. 2019 19:03

#	Modifying user name:	WinNT
#	Modification time:	15. 06. 2019 19:03

#	Program:	/corina/corina34_cracker 3.40 0067  02.08.2006

@<TRIPOS>MOLECULE
ASD01148902
  44   46    0    0    0
SMALL
NO_CHARGES


@<TRIPOS>ATOM
   1 C1            -0.1605     1.0892     0.2032 C.ar    
   2 C2            -0.0433    -0.2787     0.3678 C.ar    
   3 C3             1.1987    -0.8796     0.3031 C.ar    
   4 C4             2.3301    -0.1086     0.0726 C.ar    
   5 C5             2.2092     1.2647    -0.0924 C.ar    
   6 C6             0.9645     1.8597    -0.0266 C.ar    
   7 S7            -1.7474     1.8511     0.2791 S.o2    
   8 O8            -1.6422     3.0704    -0.4430 O.2     
   9 O9            -2.6938     0.8394    -0.0376 O.2     
  10 N10           -2.0172     2.2654     1.8596 N.am    
  11 N11            3.5917    -0.7152     0.0069 N.pl3   
  12 C12            4.0204    -1.5587    -0.9773 C.2     
  13 C13            5.2860    -1.9369    -0.6955 C.2     
  14 C14            5.6629    -1.3103     0.5040 C.2     
  15 C15            4.6065    -0.5563     0.9187 C.2     
  16 C16            4.5594     0.2810     2.1362 C.ar    
  17 C17            5.7437     0.7034     2.7426 C.ar    
  18 C18            5.6928     1.4849     3.8781 C.ar    
  19 C19            4.4714     1.8498     4.4164 C.ar    
  20 C20            3.2941     1.4345     3.8204 C.ar    
  21 C21            3.3309     0.6573     2.6809 C.ar    
  22 C22            6.9702     1.9419     4.5342 C.3     
  23 F23            7.3610     3.1697     3.9893 F       
  24 F24            6.7618     2.0874     5.9099 F       
  25 F25            7.9738     0.9928     4.3124 F       
  26 C26            3.2168    -1.9948    -2.1753 C.3     
  27 C27           -1.1742     3.2739     2.5065 C.3     
  28 H28           -0.9237    -0.8779     0.5475 H       
  29 H29            1.2897    -1.9480     0.4322 H       
  30 H30            3.0875     1.8670    -0.2715 H       
  31 H31            0.8697     2.9278    -0.1552 H       
  32 H32           -2.7333     1.8404     2.3569 H       
  33 H33            5.8983    -2.6020    -1.2862 H       
  34 H34            6.6160    -1.4052     1.0030 H       
  35 H35            6.6976     0.4187     2.3239 H       
  36 H36            4.4370     2.4612     5.3060 H       
  37 H37            2.3440     1.7225     4.2457 H       
  38 H38            2.4111     0.3372     2.2142 H       
  39 H39            3.3809    -1.2970    -2.9964 H       
  40 H40            3.5304    -2.9935    -2.4791 H       
  41 H41            2.1580    -2.0093    -1.9169 H       
  42 H42           -0.1362     2.9415     2.4949 H       
  43 H43           -1.2593     4.2180     1.9686 H       
  44 H44           -1.4998     3.4125     3.5375 H       
@<TRIPOS>BOND
   1    1    2 ar
   2    1    6 ar
   3    1    7 1
   4    2    3 ar
   5    2   28 1
   6    3    4 ar
   7    3   29 1
   8    4    5 ar
   9    4   11 1
  10    5    6 ar
  11    5   30 1
  12    6   31 1
  13    7    8 2
  14    7    9 2
  15    7   10 am
  16   10   27 1
  17   10   32 1
  18   11   12 1
  19   11   15 1
  20   12   13 2
  21   12   26 1
  22   13   14 1
  23   13   33 1
  24   14   15 2
  25   14   34 1
  26   15   16 1
  27   16   17 ar
  28   16   21 ar
  29   17   18 ar
  30   17   35 1
  31   18   19 ar
  32   18   22 1
  33   19   20 ar
  34   19   36 1
  35   20   21 ar
  36   20   37 1
  37   21   38 1
  38   22   23 1
  39   22   24 1
  40   22   25 1
  41   26   39 1
  42   26   40 1
  43   26   41 1
  44   27   42 1
  45   27   43 1
  46   27   44 1

#	End of record

