#	Name: ASD01914820
#	Creating user name:	WinNT
#	Creation time:	15. 06. 2019 20:04

#	Modifying user name:	WinNT
#	Modification time:	15. 06. 2019 20:04

#	Program:	/corina/corina34_cracker 3.40 0067  02.08.2006

@<TRIPOS>MOLECULE
ASD01914820
  25   25    0    0    0
SMALL
NO_CHARGES


@<TRIPOS>ATOM
   1 C1            -0.0184     1.5028     0.0103 C.2     
   2 C2             0.0021    -0.0041     0.0020 C.3     
   3 O3             1.0236     2.1234     0.0037 O.2     
   4 N4            -1.1946     2.1607     0.0195 N.am    
   5 C5             2.1038    -0.7177     1.1702 C.ar    
   6 C6             1.4295    -0.4870    -0.0142 C.ar    
   7 C7             2.0828    -0.7060    -1.2171 C.ar    
   8 C8             3.3958    -1.1508    -1.1837 C.ar    
   9 C9             4.0051    -1.3595     0.0388 C.ar    
  10 N10            3.3528    -1.1403     1.1639 N.ar    
  11 C11           -1.2145     3.6256     0.0275 C.3     
  12 O12           -2.4111     1.4361     0.0213 O.3     
  13 C13           -2.9043     1.1316     1.3275 C.3     
  14 H14           -0.4983    -0.3791     0.8948 H       
  15 H15           -0.5153    -0.3696    -0.8850 H       
  16 H16            1.6034    -0.5452     2.1116 H       
  17 H17            1.5810    -0.5345    -2.1580 H       
  18 H18            3.9353    -1.3321    -2.1016 H       
  19 H19            5.0275    -1.7059     0.0734 H       
  20 H20           -1.2243     3.9944    -0.9981 H       
  21 H21           -2.1068     3.9740     0.5475 H       
  22 H22           -0.3271     3.9982     0.5392 H       
  23 H23           -3.8383     0.5760     1.2428 H       
  24 H24           -2.1700     0.5286     1.8616 H       
  25 H25           -3.0808     2.0579     1.8743 H       
@<TRIPOS>BOND
   1    1    2 1
   2    1    3 2
   3    1    4 am
   4    2    6 1
   5    2   14 1
   6    2   15 1
   7    4   11 1
   8    4   12 1
   9    5    6 ar
  10    5   10 ar
  11    5   16 1
  12    6    7 ar
  13    7    8 ar
  14    7   17 1
  15    8    9 ar
  16    8   18 1
  17    9   10 ar
  18    9   19 1
  19   11   20 1
  20   11   21 1
  21   11   22 1
  22   12   13 1
  23   13   23 1
  24   13   24 1
  25   13   25 1

#	End of record

