#	Name: ASD01420068
#	Creating user name:	WinNT
#	Creation time:	15. 06. 2019 19:20

#	Modifying user name:	WinNT
#	Modification time:	15. 06. 2019 19:20

#	Program:	/corina/corina34_cracker 3.40 0067  02.08.2006

@<TRIPOS>MOLECULE
ASD01420068
  41   43    0    0    0
SMALL
NO_CHARGES


@<TRIPOS>ATOM
   1 C1            -0.0144     1.2120     0.0087 C.2     
   2 O2             0.0252     0.2228    -0.6977 O.2     
   3 C3             1.1674     2.0840     0.1221 C.ar    
   4 C4             2.4449     1.5231     0.2725 C.ar    
   5 C5             3.5500     2.3496     0.3778 C.ar    
   6 C6             3.3932     3.7273     0.3346 C.ar    
   7 C7             2.1272     4.2849     0.1855 C.ar    
   8 C8             1.0215     3.4737     0.0744 C.ar    
   9 C9             1.9670     5.7827     0.1401 C.3     
  10 C10            1.3361     6.1880    -1.1935 C.3     
  11 C11            1.0639     6.2341     1.2897 C.3     
  12 O12            4.4792     4.5346     0.4386 O.3     
  13 O13            2.5961     0.1756     0.3150 O.3     
  14 C14           -2.4288     0.8178     0.5886 C.3     
  15 N15           -1.1415     1.5134     0.6835 N.am    
  16 C16           -1.3149     2.5994     1.6534 C.3     
  17 C17           -2.7385     2.5496     2.1478 C.ar    
  18 C18           -3.4146     3.3403     3.0610 C.ar    
  19 C19           -4.7426     3.0854     3.3492 C.ar    
  20 C20           -5.3964     2.0388     2.7235 C.ar    
  21 C21           -4.7214     1.2504     1.8121 C.ar    
  22 C22           -3.3914     1.5053     1.5237 C.ar    
  23 Cl23          -5.5887     4.0773     4.4956 Cl      
  24 H24            4.5349     1.9219     0.4940 H       
  25 H25            0.0409     3.9102    -0.0456 H       
  26 H26            2.9441     6.2557     0.2384 H       
  27 H27            0.3590     5.7150    -1.2918 H       
  28 H28            1.2202     7.2713    -1.2263 H       
  29 H29            1.9794     5.8664    -2.0125 H       
  30 H30            1.5134     5.9453     2.2398 H       
  31 H31            0.9481     7.3174     1.2569 H       
  32 H32            0.0868     5.7611     1.1914 H       
  33 H33            4.8903     4.7520    -0.4092 H       
  34 H34            2.7359    -0.2320    -0.5507 H       
  35 H35           -2.8039     0.8724    -0.4333 H       
  36 H36           -2.3081    -0.2246     0.8836 H       
  37 H37           -0.6286     2.4616     2.4890 H       
  38 H38           -1.1243     3.5586     1.1721 H       
  39 H39           -2.9039     4.1571     3.5492 H       
  40 H40           -6.4337     1.8382     2.9478 H       
  41 H41           -5.2319     0.4335     1.3237 H       
@<TRIPOS>BOND
   1    1    2 2
   2    1    3 1
   3    1   15 am
   4    3    4 ar
   5    3    8 ar
   6    4    5 ar
   7    4   13 1
   8    5    6 ar
   9    5   24 1
  10    6    7 ar
  11    6   12 1
  12    7    8 ar
  13    7    9 1
  14    8   25 1
  15    9   10 1
  16    9   11 1
  17    9   26 1
  18   10   27 1
  19   10   28 1
  20   10   29 1
  21   11   30 1
  22   11   31 1
  23   11   32 1
  24   12   33 1
  25   13   34 1
  26   14   15 1
  27   14   22 1
  28   14   35 1
  29   14   36 1
  30   15   16 1
  31   16   17 1
  32   16   37 1
  33   16   38 1
  34   17   18 ar
  35   17   22 ar
  36   18   19 ar
  37   18   39 1
  38   19   20 ar
  39   19   23 1
  40   20   21 ar
  41   20   40 1
  42   21   22 ar
  43   21   41 1

#	End of record

