#	Name: ASD02039464
#	Creating user name:	WinNT
#	Creation time:	15. 06. 2019 20:18

#	Modifying user name:	WinNT
#	Modification time:	15. 06. 2019 20:18

#	Program:	/corina/corina34_cracker 3.40 0067  02.08.2006

@<TRIPOS>MOLECULE
ASD02039464
  60   63    0    0    0
SMALL
NO_CHARGES


@<TRIPOS>ATOM
   1 C1             0.0463     1.1601     0.0252 C.ar    
   2 C2             0.2685    -0.2033     0.0925 C.ar    
   3 C3             1.2136     2.1132     0.0348 C.3     
   4 N4             1.7354     2.2599    -1.3263 N.am    
   5 C5             1.3374     3.2947    -2.0926 C.2     
   6 C6             0.2936     4.2134    -1.6056 C.2     
   7 C7            -0.2771     5.2321    -2.3110 C.2     
   8 N8            -0.2798     4.1966    -0.3752 N.2     
   9 C9            -1.1586     5.1544    -0.3072 C.2     
  10 N10           -1.1826     5.8177    -1.4925 N.pl3   
  11 O11            1.8399     3.4702    -3.1862 O.2     
  12 C12           -2.0348     6.9619    -1.8251 C.3     
  13 C13            2.6897     1.2819    -1.8543 C.3     
  14 C14           -0.7973    -1.0848     0.0833 C.ar    
  15 C15           -2.3203     0.7686    -0.0710 C.ar    
  16 C16           -1.2418     1.6500    -0.0564 C.ar    
  17 C17           -3.7066     1.2893    -0.1590 C.ar    
  18 C18           -4.1375     2.2967     0.6991 C.ar    
  19 N19           -5.3683     2.7627     0.6249 N.ar    
  20 C20           -6.2375     2.2975    -0.2593 C.ar    
  21 C21           -5.8792     1.2899    -1.1509 C.ar    
  22 C22           -4.5974     0.7783    -1.1100 C.ar    
  23 C23           -2.0918    -0.6062     0.0072 C.ar    
  24 F24           -3.1328    -1.4674    -0.0017 F       
  25 N25           -7.5238     2.8214    -0.2976 N.pl3   
  26 C26           -8.5250     2.2404    -1.1955 C.3     
  27 C27           -7.8789     3.9549     0.5600 C.3     
  28 C28            2.1385     0.6750    -3.1482 C.3     
  29 C29            3.1757    -0.2865    -3.7341 C.3     
  30 O30            4.3992     0.4158    -3.9620 O.3     
  31 C31            4.9858     0.9646    -2.7801 C.3     
  32 C32            4.0212     1.9764    -2.1559 C.3     
  33 H33            1.2784    -0.5813     0.1520 H       
  34 H34            0.8864     3.0847     0.4052 H       
  35 H35            1.9969     1.7218     0.6839 H       
  36 H36           -0.0498     5.5171    -3.3276 H       
  37 H37           -1.7719     5.3830     0.5519 H       
  38 H38           -1.5202     7.8865    -1.5633 H       
  39 H39           -2.2503     6.9561    -2.8936 H       
  40 H40           -2.9680     6.8946    -1.2659 H       
  41 H41            2.8470     0.4924    -1.1194 H       
  42 H42           -0.6178    -2.1485     0.1353 H       
  43 H43           -1.4126     2.7147    -0.1162 H       
  44 H44           -3.4565     2.7005     1.4337 H       
  45 H45           -6.5941     0.9158    -1.8687 H       
  46 H46           -4.2922    -0.0036    -1.7897 H       
  47 H47           -9.0605     1.4453    -0.6768 H       
  48 H48           -9.2300     3.0131    -1.5023 H       
  49 H49           -8.0295     1.8305    -2.0756 H       
  50 H50           -7.0123     4.2475     1.1527 H       
  51 H51           -8.1957     4.7940    -0.0594 H       
  52 H52           -8.6931     3.6664     1.2248 H       
  53 H53            1.2187     0.1314    -2.9326 H       
  54 H54            1.9332     1.4702    -3.8649 H       
  55 H55            3.3505    -1.1034    -3.0339 H       
  56 H56            2.8064    -0.6889    -4.6774 H       
  57 H57            5.1842     0.1641    -2.0674 H       
  58 H58            5.9204     1.4636    -3.0362 H       
  59 H59            3.8540     2.7979    -2.8526 H       
  60 H60            4.4480     2.3635    -1.2306 H       
@<TRIPOS>BOND
   1    1    2 ar
   2    1    3 1
   3    1   16 ar
   4    2   14 ar
   5    2   33 1
   6    3    4 1
   7    3   34 1
   8    3   35 1
   9    4    5 am
  10    4   13 1
  11    5    6 1
  12    5   11 2
  13    6    7 2
  14    6    8 1
  15    7   10 1
  16    7   36 1
  17    8    9 2
  18    9   10 1
  19    9   37 1
  20   10   12 1
  21   12   38 1
  22   12   39 1
  23   12   40 1
  24   13   28 1
  25   13   32 1
  26   13   41 1
  27   14   23 ar
  28   14   42 1
  29   15   16 ar
  30   15   17 1
  31   15   23 ar
  32   16   43 1
  33   17   18 ar
  34   17   22 ar
  35   18   19 ar
  36   18   44 1
  37   19   20 ar
  38   20   21 ar
  39   20   25 1
  40   21   22 ar
  41   21   45 1
  42   22   46 1
  43   23   24 1
  44   25   26 1
  45   25   27 1
  46   26   47 1
  47   26   48 1
  48   26   49 1
  49   27   50 1
  50   27   51 1
  51   27   52 1
  52   28   29 1
  53   28   53 1
  54   28   54 1
  55   29   30 1
  56   29   55 1
  57   29   56 1
  58   30   31 1
  59   31   32 1
  60   31   57 1
  61   31   58 1
  62   32   59 1
  63   32   60 1

#	End of record

