#	Name: ASD03081169
#	Creating user name:	WinNT
#	Creation time:	15. 06. 2019 20:27

#	Modifying user name:	WinNT
#	Modification time:	15. 06. 2019 20:27

#	Program:	/corina/corina34_cracker 3.40 0067  02.08.2006

@<TRIPOS>MOLECULE
ASD03081169
  29   32    0    0    0
SMALL
NO_CHARGES


@<TRIPOS>ATOM
   1 O1            -0.0161     1.3380     0.0094 O.3     
   2 C2             0.0021    -0.0041     0.0020 C.2     
   3 N3             1.2785    -0.4363    -0.0125 N.am    
   4 C4             2.1022     0.6896    -0.0143 C.ar    
   5 C5             1.2577     1.8014    -0.0003 C.ar    
   6 C6             1.7964     3.0797     0.0010 C.ar    
   7 C7             3.1643     3.2531    -0.0119 C.ar    
   8 C8             4.0116     2.1454    -0.0264 C.ar    
   9 C9             3.4750     0.8600    -0.0265 C.ar    
  10 O10           -0.9812    -0.7194     0.0079 O.2     
  11 O11            7.5004     1.8710    -0.0650 O.3     
  12 N12            6.3872     1.3899    -0.0556 N.2     
  13 C13            5.4831     2.3361    -0.0408 C.2     
  14 N14            6.1361     3.5171    -0.0416 N.2     
  15 C15            7.4198     3.2106    -0.0570 C.2     
  16 C16            8.3225     5.5372    -0.0533 C.ar    
  17 C17            8.5519     4.1608    -0.0634 C.ar    
  18 C18            9.8721     3.6946    -0.0794 C.ar    
  19 C19           10.8960     4.6245    -0.0843 C.ar    
  20 C20           10.5857     5.9742    -0.0735 C.ar    
  21 N21            9.3306     6.3844    -0.0585 N.ar    
  22 Cl22          11.8671     7.1453    -0.0791 Cl      
  23 H23            1.5709    -1.3612    -0.0203 H       
  24 H24            1.1438     3.9402     0.0119 H       
  25 H25            3.5808     4.2495    -0.0112 H       
  26 H26            4.1281    -0.0002    -0.0375 H       
  27 H27            7.3093     5.9110    -0.0455 H       
  28 H28           10.0855     2.6359    -0.0872 H       
  29 H29           11.9265     4.3015    -0.0961 H       
@<TRIPOS>BOND
   1    1    2 1
   2    1    5 1
   3    2    3 am
   4    2   10 2
   5    3    4 1
   6    3   23 1
   7    4    5 ar
   8    4    9 ar
   9    5    6 ar
  10    6    7 ar
  11    6   24 1
  12    7    8 ar
  13    7   25 1
  14    8    9 ar
  15    8   13 1
  16    9   26 1
  17   11   12 1
  18   11   15 1
  19   12   13 2
  20   13   14 1
  21   14   15 2
  22   15   17 1
  23   16   17 ar
  24   16   21 ar
  25   16   27 1
  26   17   18 ar
  27   18   19 ar
  28   18   28 1
  29   19   20 ar
  30   19   29 1
  31   20   21 ar
  32   20   22 1

#	End of record

