#	Name: ASD01811302
#	Creating user name:	WinNT
#	Creation time:	15. 06. 2019 19:26

#	Modifying user name:	WinNT
#	Modification time:	15. 06. 2019 19:26

#	Program:	/corina/corina34_cracker 3.40 0067  02.08.2006

@<TRIPOS>MOLECULE
ASD01811302
  67   70    0    0    0
SMALL
NO_CHARGES


@<TRIPOS>ATOM
   1 C1            -2.3058    -2.6717    -2.3205 C.2     
   2 C2            -1.1252    -2.0557    -1.6781 C.ar    
   3 C3             0.0291    -2.8099    -1.4408 C.ar    
   4 C4             1.1113    -2.1825    -0.8338 C.ar    
   5 C5             1.0086    -0.8398    -0.4873 C.ar    
   6 N6            -0.0955    -0.1600    -0.7262 N.ar    
   7 C7            -1.1426    -0.7114    -1.3040 C.ar    
   8 O8            -2.2785    -3.8422    -2.6471 O.2     
   9 N9            -3.4143    -1.9368    -2.5391 N.am    
  10 C10           -4.5841    -2.5471    -3.1756 C.3     
  11 C11           -5.8445    -1.7824    -2.7663 C.3     
  12 C12           -4.4247    -2.4908    -4.6963 C.3     
  13 N13            2.2871    -2.8925    -0.5748 N.pl3   
  14 C14            2.2249    -4.2450    -0.2292 C.ar    
  15 C15            3.3952    -4.9854    -0.1045 C.ar    
  16 C16            3.3387    -6.3232     0.2376 C.ar    
  17 C17            2.1204    -6.9335     0.4573 C.ar    
  18 C18            0.9396    -6.1994     0.3342 C.ar    
  19 C19            0.9964    -4.8476    -0.0050 C.ar    
  20 C20            4.7295    -4.3270    -0.3436 C.3     
  21 C21           -0.3668    -6.8510     0.5686 C.2     
  22 O22           -1.1938    -6.3160     1.2808 O.2     
  23 N23           -0.6407    -8.0383    -0.0075 N.am    
  24 C24            0.3902    -8.7559    -0.7699 C.3     
  25 C25           -0.1617    -9.0794    -2.1618 C.3     
  26 C26           -1.4816    -9.8406    -2.0187 C.3     
  27 C27           -2.5008    -8.9646    -1.2866 C.3     
  28 C28           -1.9739    -8.6425     0.1200 C.3     
  29 C29           -2.0103   -10.1903    -3.3859 C.ar    
  30 C30           -2.2051   -11.5161    -3.7305 C.ar    
  31 C31           -2.6888   -11.8434    -4.9802 C.ar    
  32 C32           -2.9823   -10.8330    -5.8982 C.ar    
  33 C33           -2.7838    -9.4971    -5.5436 C.ar    
  34 C34           -2.3041    -9.1839    -4.2887 C.ar    
  35 C35           -3.4843   -11.1653    -7.1975 C.1     
  36 N36           -3.8825   -11.4289    -8.2282 N.1     
  37 H37            0.0781    -3.8517    -1.7214 H       
  38 H38            1.8455    -0.3467    -0.0151 H       
  39 H39           -2.0263    -0.1179    -1.4860 H       
  40 H40           -3.4375    -1.0037    -2.2748 H       
  41 H41           -4.6701    -3.5861    -2.8576 H       
  42 H42           -5.7585    -0.7434    -3.0844 H       
  43 H43           -6.7149    -2.2365    -3.2399 H       
  44 H44           -5.9580    -1.8225    -1.6830 H       
  45 H45           -4.3386    -1.4518    -5.0143 H       
  46 H46           -3.5267    -3.0356    -4.9879 H       
  47 H47           -5.2950    -2.9449    -5.1699 H       
  48 H48            3.1463    -2.4463    -0.6350 H       
  49 H49            4.2511    -6.8931     0.3330 H       
  50 H50            2.0806    -7.9793     0.7241 H       
  51 H51            0.0864    -4.2733    -0.0970 H       
  52 H52            5.1048    -3.9158     0.5935 H       
  53 H53            5.4354    -5.0646    -0.7253 H       
  54 H54            4.6133    -3.5243    -1.0718 H       
  55 H55            1.2769    -8.1293    -0.8649 H       
  56 H56            0.6477    -9.6814    -0.2547 H       
  57 H57           -0.3336    -8.1527    -2.7094 H       
  58 H58            0.5563    -9.6949    -2.7038 H       
  59 H59           -1.3136   -10.7550    -1.4497 H       
  60 H60           -2.6508    -8.0390    -1.8424 H       
  61 H61           -3.4477    -9.4984    -1.2057 H       
  62 H62           -1.9052    -9.5589     0.7062 H       
  63 H63           -2.6474    -7.9410     0.6123 H       
  64 H64           -1.9776   -12.2966    -3.0195 H       
  65 H65           -2.8397   -12.8786    -5.2482 H       
  66 H66           -3.0089    -8.7107    -6.2489 H       
  67 H67           -2.1540    -8.1509    -4.0117 H       
@<TRIPOS>BOND
   1    1    2 1
   2    1    8 2
   3    1    9 am
   4    2    3 ar
   5    2    7 ar
   6    3    4 ar
   7    3   37 1
   8    4    5 ar
   9    4   13 1
  10    5    6 ar
  11    5   38 1
  12    6    7 ar
  13    7   39 1
  14    9   10 1
  15    9   40 1
  16   10   11 1
  17   10   12 1
  18   10   41 1
  19   11   42 1
  20   11   43 1
  21   11   44 1
  22   12   45 1
  23   12   46 1
  24   12   47 1
  25   13   14 1
  26   13   48 1
  27   14   15 ar
  28   14   19 ar
  29   15   16 ar
  30   15   20 1
  31   16   17 ar
  32   16   49 1
  33   17   18 ar
  34   17   50 1
  35   18   19 ar
  36   18   21 1
  37   19   51 1
  38   20   52 1
  39   20   53 1
  40   20   54 1
  41   21   22 2
  42   21   23 am
  43   23   24 1
  44   23   28 1
  45   24   25 1
  46   24   55 1
  47   24   56 1
  48   25   26 1
  49   25   57 1
  50   25   58 1
  51   26   27 1
  52   26   29 1
  53   26   59 1
  54   27   28 1
  55   27   60 1
  56   27   61 1
  57   28   62 1
  58   28   63 1
  59   29   30 ar
  60   29   34 ar
  61   30   31 ar
  62   30   64 1
  63   31   32 ar
  64   31   65 1
  65   32   33 ar
  66   32   35 1
  67   33   34 ar
  68   33   66 1
  69   34   67 1
  70   35   36 3

#	End of record

