#	Name: ASD03091489
#	Creating user name:	WinNT
#	Creation time:	15. 06. 2019 20:30

#	Modifying user name:	WinNT
#	Modification time:	15. 06. 2019 20:30

#	Program:	/corina/corina34_cracker 3.40 0067  02.08.2006

@<TRIPOS>MOLECULE
ASD03091489
  49   52    0    0    0
SMALL
NO_CHARGES


@<TRIPOS>ATOM
   1 N1            -0.0163     1.3523     0.0095 N.pl3   
   2 C2             0.0021    -0.0041     0.0020 C.2     
   3 C3             1.1379    -0.7091     0.2664 C.2     
   4 C4             2.3786     0.0269     0.5584 C.2     
   5 C5             2.3734     1.4687     0.2771 C.ar    
   6 C6             3.5464     2.2358     0.2734 C.ar    
   7 N7             3.4823     3.5322     0.0075 N.ar    
   8 C8             2.3380     4.1398    -0.2578 C.ar    
   9 C9             1.1413     3.4584    -0.2714 C.ar    
  10 C10            1.1399     2.0905     0.0024 C.ar    
  11 N11            4.7655     1.6421     0.5465 N.pl3   
  12 C12            5.9896     2.4470     0.5418 C.3     
  13 C13            7.0558     1.7901     1.4359 C.3     
  14 C14            8.2578     1.4679     0.5242 C.3     
  15 C15            8.1130     2.4570    -0.6589 C.3     
  16 C16            6.5809     2.5011    -0.8820 C.3     
  17 O17            3.3628    -0.5329     1.0121 O.2     
  18 C18            1.1240    -2.1921     0.2605 C.ar    
  19 C19            0.8701    -2.8835    -0.9230 C.ar    
  20 C20            0.8578    -4.2628    -0.9251 C.ar    
  21 C21            1.0980    -4.9623     0.2495 C.ar    
  22 C22            1.3512    -4.2768     1.4296 C.ar    
  23 C23            1.3706    -2.8976     1.4373 C.ar    
  24 O24            1.0848    -6.3214     0.2442 O.3     
  25 C25            1.3398    -6.9775     1.4878 C.3     
  26 C26            1.2839    -8.4930     1.2857 C.3     
  27 H27           -0.8701     1.8127     0.0160 H       
  28 H28           -0.9090    -0.5402    -0.2193 H       
  29 H29            2.3420     5.1989    -0.4690 H       
  30 H30            0.2183     3.9750    -0.4898 H       
  31 H31            4.8099     0.6929     0.7412 H       
  32 H32            5.7747     3.4551     0.8962 H       
  33 H33            7.3589     2.4797     2.2237 H       
  34 H34            6.6625     0.8724     1.8733 H       
  35 H35            9.1950     1.6407     1.0533 H       
  36 H36            8.2028     0.4386     0.1699 H       
  37 H37            8.4924     3.4421    -0.3875 H       
  38 H38            8.6216     2.0766    -1.5448 H       
  39 H39            6.2551     1.6386    -1.4634 H       
  40 H40            6.2943     3.4278    -1.3791 H       
  41 H41            0.6827    -2.3399    -1.8372 H       
  42 H42            0.6607    -4.7991    -1.8416 H       
  43 H43            1.5374    -4.8239     2.3420 H       
  44 H44            1.5721    -2.3648     2.3549 H       
  45 H45            2.3280    -6.6956     1.8514 H       
  46 H46            0.5860    -6.6801     2.2168 H       
  47 H47            1.4784    -8.9935     2.2343 H       
  48 H48            0.2957    -8.7749     0.9222 H       
  49 H49            2.0377    -8.7904     0.5567 H       
@<TRIPOS>BOND
   1    1    2 1
   2    1   10 1
   3    1   27 1
   4    2    3 2
   5    2   28 1
   6    3    4 1
   7    3   18 1
   8    4    5 1
   9    4   17 2
  10    5    6 ar
  11    5   10 ar
  12    6    7 ar
  13    6   11 1
  14    7    8 ar
  15    8    9 ar
  16    8   29 1
  17    9   10 ar
  18    9   30 1
  19   11   12 1
  20   11   31 1
  21   12   13 1
  22   12   16 1
  23   12   32 1
  24   13   14 1
  25   13   33 1
  26   13   34 1
  27   14   15 1
  28   14   35 1
  29   14   36 1
  30   15   16 1
  31   15   37 1
  32   15   38 1
  33   16   39 1
  34   16   40 1
  35   18   19 ar
  36   18   23 ar
  37   19   20 ar
  38   19   41 1
  39   20   21 ar
  40   20   42 1
  41   21   22 ar
  42   21   24 1
  43   22   23 ar
  44   22   43 1
  45   23   44 1
  46   24   25 1
  47   25   26 1
  48   25   45 1
  49   25   46 1
  50   26   47 1
  51   26   48 1
  52   26   49 1

#	End of record

