#	Name: ASD02500312
#	Creating user name:	WinNT
#	Creation time:	15. 06. 2019 20:22

#	Modifying user name:	WinNT
#	Modification time:	15. 06. 2019 20:22

#	Program:	/corina/corina34_cracker 3.40 0067  02.08.2006

@<TRIPOS>MOLECULE
ASD02500312
  63   67    0    0    0
SMALL
NO_CHARGES


@<TRIPOS>ATOM
   1 N1            -3.2151     5.6666     0.5881 N.ar    
   2 C2            -4.3378     6.3425     0.6179 C.ar    
   3 C3            -5.2965     6.1283     1.6061 C.ar    
   4 C4            -5.0776     5.1931     2.5770 C.ar    
   5 C5            -3.8709     4.4688     2.5415 C.ar    
   6 C6            -3.5757     3.4921     3.5057 C.ar    
   7 C7            -2.3972     2.8133     3.4371 C.ar    
   8 C8            -1.4794     3.0753     2.4223 C.ar    
   9 C9            -1.7332     4.0154     1.4713 C.ar    
  10 C10           -2.9387     4.7371     1.5083 C.ar    
  11 S11           -0.5544     4.3272     0.1993 S.o2    
  12 O12           -0.3681     5.7354     0.1614 O.2     
  13 O13            0.5094     3.4077     0.4039 O.2     
  14 N14           -1.2628     3.9104    -1.2383 N.am    
  15 C15           -1.5438     2.5743    -1.5148 C.ar    
  16 C16           -1.4861     2.1075    -2.8296 C.ar    
  17 C17           -1.7643     0.7841    -3.1043 C.ar    
  18 C18           -2.1036    -0.0867    -2.0639 C.ar    
  19 C19           -2.1598     0.3861    -0.7505 C.ar    
  20 C20           -1.8756     1.7067    -0.4807 C.ar    
  21 C21           -2.4023    -1.5022    -2.3531 C.2     
  22 O22           -2.9629    -1.8061    -3.3884 O.2     
  23 N23           -2.0538    -2.4585    -1.4696 N.am    
  24 C24           -1.4944    -2.1165    -0.1366 C.3     
  25 C25           -2.5442    -2.2025     0.8725 C.3     
  26 N26           -3.1897    -3.5389     0.8090 N.am    
  27 C27           -4.1704    -3.7358    -0.2005 C.3     
  28 C28           -3.6356    -4.4114    -1.5054 C.3     
  29 C29           -2.2107    -3.8387    -1.7697 C.3     
  30 C30           -3.5890    -5.8108     1.6384 C.ar    
  31 C31           -3.3342    -6.7728     2.6132 C.ar    
  32 C32           -4.0285    -7.9716     2.5736 C.ar    
  33 C33           -4.9538    -8.1666     1.5600 C.ar    
  34 C34           -5.1563    -7.1657     0.6234 C.ar    
  35 N35           -4.4836    -6.0372     0.6846 N.ar    
  36 C36           -2.8596    -4.5215     1.6704 C.2     
  37 O37           -1.9637    -4.3499     2.4733 O.2     
  38 O38           -1.1561     2.9570    -3.8393 O.3     
  39 H39           -4.5246     7.0853    -0.1435 H       
  40 H40           -6.2118     6.7016     1.6045 H       
  41 H41           -5.8096     5.0143     3.3506 H       
  42 H42           -4.2790     3.2806     4.2975 H       
  43 H43           -2.1710     2.0620     4.1793 H       
  44 H44           -0.5513     2.5239     2.3900 H       
  45 H45           -1.4821     4.5966    -1.8879 H       
  46 H46           -1.7204     0.4217    -4.1207 H       
  47 H47           -2.4217    -0.2850     0.0541 H       
  48 H48           -1.9152     2.0698     0.5357 H       
  49 H49           -0.6948    -2.8145     0.1113 H       
  50 H50           -1.0957    -1.1023    -0.1598 H       
  51 H51           -2.1098    -2.0561     1.8614 H       
  52 H52           -3.2904    -1.4299     0.6866 H       
  53 H53           -4.9666    -4.3577     0.2086 H       
  54 H54           -4.5950    -2.7667    -0.4628 H       
  55 H55           -3.5833    -5.4916    -1.3692 H       
  56 H56           -4.2923    -4.1734    -2.3422 H       
  57 H57           -1.9733    -3.9920    -2.8224 H       
  58 H58           -1.4957    -4.4049    -1.1728 H       
  59 H59           -2.6057    -6.5873     3.3886 H       
  60 H60           -3.8523    -8.7367     3.3153 H       
  61 H61           -5.5112    -9.0898     1.5006 H       
  62 H62           -5.8765    -7.3143    -0.1676 H       
  63 H63           -0.2076     3.0010    -4.0222 H       
@<TRIPOS>BOND
   1    1    2 ar
   2    1   10 ar
   3    2    3 ar
   4    2   39 1
   5    3    4 ar
   6    3   40 1
   7    4    5 ar
   8    4   41 1
   9    5    6 ar
  10    5   10 ar
  11    6    7 ar
  12    6   42 1
  13    7    8 ar
  14    7   43 1
  15    8    9 ar
  16    8   44 1
  17    9   10 ar
  18    9   11 1
  19   11   12 2
  20   11   13 2
  21   11   14 am
  22   14   15 1
  23   14   45 1
  24   15   16 ar
  25   15   20 ar
  26   16   17 ar
  27   16   38 1
  28   17   18 ar
  29   17   46 1
  30   18   19 ar
  31   18   21 1
  32   19   20 ar
  33   19   47 1
  34   20   48 1
  35   21   22 2
  36   21   23 am
  37   23   24 1
  38   23   29 1
  39   24   25 1
  40   24   49 1
  41   24   50 1
  42   25   26 1
  43   25   51 1
  44   25   52 1
  45   26   27 1
  46   26   36 am
  47   27   28 1
  48   27   53 1
  49   27   54 1
  50   28   29 1
  51   28   55 1
  52   28   56 1
  53   29   57 1
  54   29   58 1
  55   30   31 ar
  56   30   35 ar
  57   30   36 1
  58   31   32 ar
  59   31   59 1
  60   32   33 ar
  61   32   60 1
  62   33   34 ar
  63   33   61 1
  64   34   35 ar
  65   34   62 1
  66   36   37 2
  67   38   63 1

#	End of record

