#	Name: ASD01911804
#	Creating user name:	WinNT
#	Creation time:	15. 06. 2019 19:58

#	Modifying user name:	WinNT
#	Modification time:	15. 06. 2019 19:58

#	Program:	/corina/corina34_cracker 3.40 0067  02.08.2006

@<TRIPOS>MOLECULE
ASD01911804
  39   40    0    0    0
SMALL
NO_CHARGES


@<TRIPOS>ATOM
   1 C1             0.0497     1.4537    -0.2532 C.2     
   2 C2             0.0142    -0.0455    -0.4026 C.3     
   3 C3             1.4116    -0.5606    -0.6327 C.2     
   4 O4             1.1099     2.0316    -0.2105 O.2     
   5 O5             1.9026    -1.3507     0.1457 O.2     
   6 N6             2.1159    -0.1433    -1.7034 N.am    
   7 C7            -0.5568    -0.6715     0.8714 C.3     
   8 C8            -0.2955    -4.4092     1.3115 C.ar    
   9 C9            -0.1148    -3.0531     1.5351 C.ar    
  10 C10           -0.7221    -2.1560     0.6710 C.ar    
  11 N11           -1.4496    -2.6204    -0.3323 N.ar    
  12 C12           -1.5994    -3.9170    -0.5140 C.ar    
  13 N13           -1.0369    -4.7994     0.2874 N.ar    
  14 C14            3.3729    -0.6984    -1.9745 C.ar    
  15 C15            3.8596    -0.7183    -3.2769 C.ar    
  16 C16            5.1013    -1.2674    -3.5404 C.ar    
  17 C17            5.8575    -1.7959    -2.5099 C.ar    
  18 C18            5.3747    -1.7773    -1.2137 C.ar    
  19 C19            4.1380    -1.2248    -0.9428 C.ar    
  20 I20            7.7380    -2.6268    -2.9130 I       
  21 F21            3.1205    -0.2024    -4.2833 F       
  22 O22           -1.0966     2.1475    -0.1732 O.3     
  23 C23           -2.3861     4.1678     0.2578 C.3     
  24 C24           -0.9878     3.5736     0.0773 C.3     
  25 H25           -0.6154    -0.3112    -1.2517 H       
  26 H26            1.7522     0.5415    -2.2862 H       
  27 H27            0.1252    -0.4908     1.7022 H       
  28 H28           -1.5260    -0.2247     1.0929 H       
  29 H29            0.1663    -5.1374     1.9618 H       
  30 H30            0.4846    -2.7042     2.3630 H       
  31 H31           -2.1994    -4.2659    -1.3415 H       
  32 H32            5.4805    -1.2839    -4.5515 H       
  33 H33            5.9677    -2.1912    -0.4115 H       
  34 H34            3.7646    -1.2064     0.0705 H       
  35 H35           -2.9990     3.9247    -0.6102 H       
  36 H36           -2.8448     3.7515     1.1546 H       
  37 H37           -2.3107     5.2506     0.3575 H       
  38 H38           -0.4028     3.7401     0.9818 H       
  39 H39           -0.4950     4.0544    -0.7678 H       
@<TRIPOS>BOND
   1    1    2 1
   2    1    4 2
   3    1   22 1
   4    2    3 1
   5    2    7 1
   6    2   25 1
   7    3    5 2
   8    3    6 am
   9    6   14 1
  10    6   26 1
  11    7   10 1
  12    7   27 1
  13    7   28 1
  14    8    9 ar
  15    8   13 ar
  16    8   29 1
  17    9   10 ar
  18    9   30 1
  19   10   11 ar
  20   11   12 ar
  21   12   13 ar
  22   12   31 1
  23   14   15 ar
  24   14   19 ar
  25   15   16 ar
  26   15   21 1
  27   16   17 ar
  28   16   32 1
  29   17   18 ar
  30   17   20 1
  31   18   19 ar
  32   18   33 1
  33   19   34 1
  34   22   24 1
  35   23   24 1
  36   23   35 1
  37   23   36 1
  38   23   37 1
  39   24   38 1
  40   24   39 1

#	End of record

