#	Name: ASD00311429
#	Creating user name:	WinNT
#	Creation time:	15. 06. 2019 18:34

#	Modifying user name:	WinNT
#	Modification time:	15. 06. 2019 18:34

#	Program:	/corina/corina34_cracker 3.40 0067  02.08.2006

@<TRIPOS>MOLECULE
ASD00311429
  43   46    0    0    0
SMALL
NO_CHARGES


@<TRIPOS>ATOM
   1 C1            -0.0167     1.3779     0.0096 C.2     
   2 C2             0.0021    -0.0041     0.0020 C.2     
   3 C3             1.2590    -0.6766    -0.0131 C.2     
   4 C4             2.4314     0.0673    -0.0199 C.2     
   5 C5             2.3574     1.4751    -0.0117 C.2     
   6 N6             1.1649     2.0904     0.0022 N.am    
   7 C7            -1.3430    -0.5749     0.0118 C.2     
   8 C8            -2.3222     0.3256     0.0260 C.2     
   9 S9            -1.6794     1.9560     0.0358 S.3     
  10 O10            3.3824     2.1371    -0.0171 O.2     
  11 C11            3.7479    -0.6121    -0.0352 C.ar    
  12 C12            4.5935    -0.4744    -1.1355 C.ar    
  13 C13            5.8185    -1.1091    -1.1450 C.ar    
  14 C14            6.2089    -1.8824    -0.0637 C.ar    
  15 C15            5.3724    -2.0224     1.0317 C.ar    
  16 C16            4.1479    -1.3869     1.0532 C.ar    
  17 F17            7.4092    -2.5024    -0.0779 F       
  18 O18            1.3091    -2.0292    -0.0204 O.3     
  19 C19           -1.5955    -2.0355     0.0056 C.ar    
  20 C20           -1.2008    -2.8207     1.0928 C.ar    
  21 C21           -1.4409    -4.1863     1.0785 C.ar    
  22 C22           -2.0689    -4.7681    -0.0097 C.ar    
  23 C23           -2.4596    -3.9925    -1.0865 C.ar    
  24 C24           -2.2323    -2.6309    -1.0816 C.ar    
  25 O25           -0.5836    -2.2476     2.1600 O.3     
  26 C26           -1.4206    -1.7805     3.2198 C.3     
  27 C27           -2.3274    -6.2527    -0.0214 C.3     
  28 F28           -1.0616    -4.9496     2.1267 F       
  29 H29            1.1328     3.0599     0.0077 H       
  30 H30           -3.3748     0.0837     0.0342 H       
  31 H31            4.2899     0.1279    -1.9790 H       
  32 H32            6.4739    -1.0034    -1.9968 H       
  33 H33            5.6811    -2.6265     1.8721 H       
  34 H34            3.4985    -1.4927     1.9097 H       
  35 H35            2.2064    -2.3895    -0.0307 H       
  36 H36           -2.9486    -4.4533    -1.9321 H       
  37 H37           -2.5436    -2.0282    -1.9220 H       
  38 H38           -2.1046    -1.0237     2.8359 H       
  39 H39           -1.9927    -2.6149     3.6257 H       
  40 H40           -0.8031    -1.3468     4.0063 H       
  41 H41           -3.3034    -6.4550     0.4198 H       
  42 H42           -2.3107    -6.6164    -1.0488 H       
  43 H43           -1.5552    -6.7605     0.5564 H       
@<TRIPOS>BOND
   1    1    2 2
   2    1    6 1
   3    1    9 1
   4    2    3 1
   5    2    7 1
   6    3    4 2
   7    3   18 1
   8    4    5 1
   9    4   11 1
  10    5    6 am
  11    5   10 2
  12    6   29 1
  13    7    8 2
  14    7   19 1
  15    8    9 1
  16    8   30 1
  17   11   12 ar
  18   11   16 ar
  19   12   13 ar
  20   12   31 1
  21   13   14 ar
  22   13   32 1
  23   14   15 ar
  24   14   17 1
  25   15   16 ar
  26   15   33 1
  27   16   34 1
  28   18   35 1
  29   19   20 ar
  30   19   24 ar
  31   20   21 ar
  32   20   25 1
  33   21   22 ar
  34   21   28 1
  35   22   23 ar
  36   22   27 1
  37   23   24 ar
  38   23   36 1
  39   24   37 1
  40   25   26 1
  41   26   38 1
  42   26   39 1
  43   26   40 1
  44   27   41 1
  45   27   42 1
  46   27   43 1

#	End of record

