#	Name: ASD04230151
#	Creating user name:	WinNT
#	Creation time:	15. 06. 2019 20:48

#	Modifying user name:	WinNT
#	Modification time:	15. 06. 2019 20:48

#	Program:	/corina/corina34_cracker 3.40 0067  02.08.2006

@<TRIPOS>MOLECULE
ASD04230151
  49   53    0    0    0
SMALL
NO_CHARGES


@<TRIPOS>ATOM
   1 C1             1.5360     4.6855     1.7214 C.ar    
   2 C2             2.5441     5.3833     2.3709 C.ar    
   3 C3             3.8006     4.8582     2.4692 C.ar    
   4 C4             4.0826     3.6074     1.9011 C.ar    
   5 C5             3.0564     2.8814     1.2698 C.ar    
   6 C6             1.7831     3.4391     1.1739 C.ar    
   7 C7             5.3935     3.0671     1.9624 C.2     
   8 C8             5.6629     1.9280     1.2156 C.2     
   9 C9             4.5671     1.3876     0.3904 C.2     
  10 O10            3.2979     1.6419     0.7796 O.3     
  11 C11            6.9879     1.2867     1.2461 C.2     
  12 N12            7.2189     0.1816     0.5099 N.am    
  13 O13            7.8741     1.7542     1.9357 O.2     
  14 C14            8.5060    -0.3625     0.4501 C.ar    
  15 C15            8.6753    -1.7392     0.3674 C.ar    
  16 C16            9.9456    -2.2811     0.3081 C.ar    
  17 C17           11.0534    -1.4581     0.3312 C.ar    
  18 C18           10.8934    -0.0748     0.4145 C.ar    
  19 C19            9.6133     0.4722     0.4675 C.ar    
  20 C20           12.0814     0.8104     0.4399 C.ar    
  21 O21            4.7980     0.7337    -0.6095 O.2     
  22 C22           12.1604     1.9017    -0.4153 C.ar    
  23 C23           13.1367     0.5564     1.3344 C.ar    
  24 C24           14.2589     1.4023     1.3509 C.ar    
  25 C25           14.3134     2.4857     0.4793 C.ar    
  26 C26           13.2716     2.7287    -0.3901 C.ar    
  27 C27           13.3836    -0.4662     2.3504 C.2     
  28 C28           14.5807    -0.1956     2.8971 C.2     
  29 N29           15.1184     0.9177     2.3120 N.pl3   
  30 O30            0.7868     2.7606     0.5447 O.3     
  31 C31           -0.4925     3.3945     0.4849 C.3     
  32 H32            0.5488     5.1170     1.6464 H       
  33 H33            2.3331     6.3507     2.8022 H       
  34 H34            4.5766     5.4056     2.9837 H       
  35 H35            6.1578     3.5278     2.5707 H       
  36 H36            6.4924    -0.2363     0.0215 H       
  37 H37            7.8119    -2.3878     0.3497 H       
  38 H38           10.0717    -3.3518     0.2439 H       
  39 H39           12.0443    -1.8852     0.2850 H       
  40 H40            9.4839     1.5425     0.5317 H       
  41 H41           11.3529     2.1061    -1.1027 H       
  42 H42           15.1725     3.1401     0.4867 H       
  43 H43           13.3240     3.5721    -1.0627 H       
  44 H44           12.7278    -1.2834     2.6119 H       
  45 H45           15.0485    -0.7711     3.6823 H       
  46 H46           15.9769     1.3076     2.5397 H       
  47 H47           -0.8555     3.5765     1.4964 H       
  48 H48           -0.4037     4.3427    -0.0453 H       
  49 H49           -1.1941     2.7479    -0.0421 H       
@<TRIPOS>BOND
   1    1    2 ar
   2    1    6 ar
   3    1   32 1
   4    2    3 ar
   5    2   33 1
   6    3    4 ar
   7    3   34 1
   8    4    5 ar
   9    4    7 1
  10    5    6 ar
  11    5   10 1
  12    6   30 1
  13    7    8 2
  14    7   35 1
  15    8    9 1
  16    8   11 1
  17    9   10 1
  18    9   21 2
  19   11   12 am
  20   11   13 2
  21   12   14 1
  22   12   36 1
  23   14   15 ar
  24   14   19 ar
  25   15   16 ar
  26   15   37 1
  27   16   17 ar
  28   16   38 1
  29   17   18 ar
  30   17   39 1
  31   18   19 ar
  32   18   20 1
  33   19   40 1
  34   20   23 ar
  35   20   22 ar
  36   22   26 ar
  37   22   41 1
  38   23   24 ar
  39   23   27 1
  40   24   25 ar
  41   24   29 1
  42   25   26 ar
  43   25   42 1
  44   26   43 1
  45   27   28 2
  46   27   44 1
  47   28   29 1
  48   28   45 1
  49   29   46 1
  50   30   31 1
  51   31   47 1
  52   31   48 1
  53   31   49 1

#	End of record

