#	Name: ASD05060085
#	Creating user name:	WinNT
#	Creation time:	15. 06. 2019 20:56

#	Modifying user name:	WinNT
#	Modification time:	15. 06. 2019 20:56

#	Program:	/corina/corina34_cracker 3.40 0067  02.08.2006

@<TRIPOS>MOLECULE
ASD05060085
  20   21    0    0    0
SMALL
NO_CHARGES


@<TRIPOS>ATOM
   1 S1            -0.0211     1.7014     0.0114 S.3     
   2 C2             0.0021    -0.0041     0.0020 C.2     
   3 C3             1.2542    -0.4699    -0.0124 C.2     
   4 C4             2.2390     0.4978    -0.0166 C.2     
   5 C5             1.7354     1.7768    -0.0050 C.2     
   6 C6             2.5072     2.9641    -0.0064 C.2     
   7 O7             3.7223     2.8998    -0.0187 O.2     
   8 O8             1.8951     4.1668     0.0060 O.3     
   9 N9             3.6067     0.2069    -0.0313 N.pl3   
  10 C10            4.2455    -0.6614     0.8079 C.2     
  11 C11            5.5546    -0.6725     0.4852 C.2     
  12 C12            5.7329     0.2201    -0.5913 C.2     
  13 C13            4.5252     0.7395    -0.8909 C.2     
  14 H14           -0.8806    -0.6264     0.0074 H       
  15 H15            1.4796    -1.5261    -0.0199 H       
  16 H16            2.5040     4.9180     0.0039 H       
  17 H17            3.7821    -1.2392     1.5938 H       
  18 H18            6.3256    -1.2581     0.9639 H       
  19 H19            6.6654     0.4435    -1.0882 H       
  20 H20            4.3200     1.4551    -1.6733 H       
@<TRIPOS>BOND
   1    1    2 1
   2    1    5 1
   3    2    3 2
   4    2   14 1
   5    3    4 1
   6    3   15 1
   7    4    5 2
   8    4    9 1
   9    5    6 1
  10    6    7 2
  11    6    8 1
  12    8   16 1
  13    9   10 1
  14    9   13 1
  15   10   11 2
  16   10   17 1
  17   11   12 1
  18   11   18 1
  19   12   13 2
  20   12   19 1
  21   13   20 1

#	End of record

