#	Name: ASD01917867
#	Creating user name:	WinNT
#	Creation time:	15. 06. 2019 20:10

#	Modifying user name:	WinNT
#	Modification time:	15. 06. 2019 20:10

#	Program:	/corina/corina34_cracker 3.40 0067  02.08.2006

@<TRIPOS>MOLECULE
ASD01917867
  48   52    0    0    0
SMALL
NO_CHARGES


@<TRIPOS>ATOM
   1 C1            -0.1088     1.4675     0.2921 C.2     
   2 C2            -0.0398     0.1231     0.2889 C.2     
   3 C3            -1.2675    -0.7686     0.1846 C.3     
   4 C4            -2.5091     0.0411     0.5655 C.3     
   5 N5            -2.4734     1.3346    -0.1336 N.am    
   6 C6            -1.3870     2.2698     0.2071 C.3     
   7 C7            -3.4039     1.6536    -1.0549 C.2     
   8 O8            -4.2361     0.8335    -1.3868 O.2     
   9 S9             1.5208     2.1148     0.4183 S.3     
  10 C10            2.1554     0.5283     0.4606 C.2     
  11 N11            1.2021    -0.3322     0.3838 N.2     
  12 C12            3.6191     0.1871     0.5712 C.3     
  13 O13            4.1846     0.0851    -0.7372 O.3     
  14 C14            5.5068    -0.2192    -0.8158 C.ar    
  15 C15            6.1209    -0.3339    -2.0545 C.ar    
  16 C16            7.4650    -0.6434    -2.1318 C.ar    
  17 C17            8.1982    -0.8387    -0.9759 C.ar    
  18 C18            7.5884    -0.7254     0.2598 C.ar    
  19 C19            6.2460    -0.4100     0.3426 C.ar    
  20 C20           -3.4117     3.0058    -1.6634 C.2     
  21 O21           -3.9338     3.9850    -1.1974 O.3     
  22 C22           -3.8267     5.1114    -1.9028 C.ar    
  23 C23           -3.0943     4.8640    -3.0736 C.ar    
  24 C24           -2.7570     3.3927    -2.9769 C.3     
  25 C25           -4.2976     6.4112    -1.6731 C.ar    
  26 C26           -4.0373     7.4087    -2.5870 C.ar    
  27 C27           -3.3124     7.1426    -3.7362 C.ar    
  28 C28           -2.8405     5.8600    -3.9755 C.ar    
  29 H29           -1.3686    -1.1313    -0.8383 H       
  30 H30           -1.1619    -1.6148     0.8636 H       
  31 H31           -3.4051    -0.5065     0.2732 H       
  32 H32           -2.5184     0.2091     1.6424 H       
  33 H33           -1.5934     2.7433     1.1670 H       
  34 H34           -1.2951     3.0293    -0.5693 H       
  35 H35            4.1334     0.9694     1.1294 H       
  36 H36            3.7321    -0.7643     1.0910 H       
  37 H37            5.5485    -0.1818    -2.9576 H       
  38 H38            7.9435    -0.7332    -3.0958 H       
  39 H39            9.2489    -1.0806    -1.0384 H       
  40 H40            8.1631    -0.8791     1.1612 H       
  41 H41            5.7701    -0.3215     1.3081 H       
  42 H42           -4.4072     3.9562    -0.3546 H       
  43 H43           -1.6785     3.2405    -2.9341 H       
  44 H44           -3.1943     2.8392    -3.8079 H       
  45 H45           -4.8644     6.6307    -0.7804 H       
  46 H46           -4.4028     8.4085    -2.4052 H       
  47 H47           -3.1144     7.9326    -4.4456 H       
  48 H48           -2.2749     5.6489    -4.8710 H       
@<TRIPOS>BOND
   1    1    2 2
   2    1    9 1
   3    1    6 1
   4    2    3 1
   5    2   11 1
   6    3    4 1
   7    3   29 1
   8    3   30 1
   9    4    5 1
  10    4   31 1
  11    4   32 1
  12    5    6 1
  13    5    7 am
  14    6   33 1
  15    6   34 1
  16    7    8 2
  17    7   20 1
  18    9   10 1
  19   10   11 2
  20   10   12 1
  21   12   13 1
  22   12   35 1
  23   12   36 1
  24   13   14 1
  25   14   15 ar
  26   14   19 ar
  27   15   16 ar
  28   15   37 1
  29   16   17 ar
  30   16   38 1
  31   17   18 ar
  32   17   39 1
  33   18   19 ar
  34   18   40 1
  35   19   41 1
  36   20   21 2
  37   20   24 1
  38   21   22 1
  39   21   42 1
  40   22   23 ar
  41   22   25 ar
  42   23   24 1
  43   23   28 ar
  44   24   43 1
  45   24   44 1
  46   25   26 ar
  47   25   45 1
  48   26   27 ar
  49   26   46 1
  50   27   28 ar
  51   27   47 1
  52   28   48 1

#	End of record

