#	Name: ASD03331131
#	Creating user name:	WinNT
#	Creation time:	15. 06. 2019 20:38

#	Modifying user name:	WinNT
#	Modification time:	15. 06. 2019 20:38

#	Program:	/corina/corina34_cracker 3.40 0067  02.08.2006

@<TRIPOS>MOLECULE
ASD03331131
  30   31    0    0    0
SMALL
NO_CHARGES


@<TRIPOS>ATOM
   1 N1            -0.0459     1.4955     0.5698 N.am    
   2 C2             0.0019     0.1506     1.1630 C.3     
   3 C3             0.5966    -0.8151     0.1325 C.3     
   4 N4             1.8894    -0.2949    -0.3323 N.3     
   5 C5             1.7288     0.9912    -1.0237 C.3     
   6 C6             1.1805     2.0309    -0.0406 C.3     
   7 C7            -1.1849     2.2161     0.5802 C.2     
   8 O8            -2.2139     1.7206     0.9972 O.2     
   9 N9            -1.1831     3.4859     0.1284 N.am    
  10 C10           -2.3861     4.1969     0.0329 C.ar    
  11 C11           -2.4019     5.5684     0.2480 C.ar    
  12 C12           -3.5891     6.2678     0.1529 C.ar    
  13 C13           -4.7631     5.6019    -0.1563 C.ar    
  14 C14           -4.7495     4.2341    -0.3712 C.ar    
  15 C15           -3.5634     3.5320    -0.2827 C.ar    
  16 F16           -5.9235     6.2877    -0.2480 F       
  17 H17            0.6284     0.1658     2.0548 H       
  18 H18           -1.0063    -0.1698     1.4258 H       
  19 H19            0.7419    -1.7929     0.5918 H       
  20 H20           -0.0837    -0.9079    -0.7140 H       
  21 H21            2.5431    -0.2153     0.4322 H       
  22 H22            2.6952     1.3234    -1.4030 H       
  23 H23            1.0327     0.8732    -1.8542 H       
  24 H24            0.9515     2.9537    -0.5736 H       
  25 H25            1.9203     2.2269     0.7355 H       
  26 H26           -0.3488     3.9073    -0.1307 H       
  27 H27           -1.4865     6.0880     0.4900 H       
  28 H28           -3.6018     7.3347     0.3202 H       
  29 H29           -5.6662     3.7165    -0.6123 H       
  30 H30           -3.5524     2.4658    -0.4548 H       
@<TRIPOS>BOND
   1    1    2 1
   2    1    6 1
   3    1    7 am
   4    2    3 1
   5    2   17 1
   6    2   18 1
   7    3    4 1
   8    3   19 1
   9    3   20 1
  10    4    5 1
  11    4   21 1
  12    5    6 1
  13    5   22 1
  14    5   23 1
  15    6   24 1
  16    6   25 1
  17    7    8 2
  18    7    9 am
  19    9   10 1
  20    9   26 1
  21   10   11 ar
  22   10   15 ar
  23   11   12 ar
  24   11   27 1
  25   12   13 ar
  26   12   28 1
  27   13   14 ar
  28   13   16 1
  29   14   15 ar
  30   14   29 1
  31   15   30 1

#	End of record

