#	Name: ASD01042003
#	Creating user name:	WinNT
#	Creation time:	15. 06. 2019 18:58

#	Modifying user name:	WinNT
#	Modification time:	15. 06. 2019 18:58

#	Program:	/corina/corina34_cracker 3.40 0067  02.08.2006

@<TRIPOS>MOLECULE
ASD01042003
  72   75    0    0    0
SMALL
NO_CHARGES


@<TRIPOS>ATOM
   1 C1             0.0682     1.7465     0.1959 C.3     
   2 C2             0.0366     0.2136     0.2047 C.3     
   3 C3             0.4666    -0.2850    -1.1733 C.3     
   4 C4             1.7612     0.3631    -1.5912 C.ar    
   5 C5             2.2445     1.5039    -0.9979 C.ar    
   6 C6             1.5258     2.1978     0.1308 C.3     
   7 C7             2.4797    -0.2377    -2.6174 C.ar    
   8 C8             3.6623     0.3202    -3.0519 C.ar    
   9 C9             4.1395     1.4798    -2.4694 C.ar    
  10 C10            3.4464     2.0716    -1.4285 C.ar    
  11 C11            5.3852     2.1199    -2.9745 C.3     
  12 C12            6.0747     2.8064    -1.7646 C.3     
  13 C13            5.1607     3.9372    -1.3390 C.3     
  14 C14            3.9228     3.2991    -0.6972 C.3     
  15 C15            6.4968     1.2002    -3.4817 C.3     
  16 C16            7.7584     2.1038    -3.3869 C.3     
  17 C17            7.4447     3.1800    -2.3157 C.3     
  18 C18            8.4932     3.1422    -1.2022 C.3     
  19 C19            9.8511     3.4471    -1.7802 C.2     
  20 C20           10.8303     2.5543    -1.6830 C.2     
  21 C21           12.1559     2.8519    -2.2473 C.2     
  22 C22           13.1351     1.9591    -2.1501 C.2     
  23 C23           12.8878     0.6415    -1.4618 C.3     
  24 C24           14.4930     2.2640    -2.7281 C.3     
  25 C25            8.1456     4.1858    -0.1387 C.3     
  26 C26            6.2285     1.8047    -0.6184 C.3     
  27 O27            0.9373    -0.2806     1.1980 O.3     
  28 C28            0.6548    -1.8026    -1.1247 C.3     
  29 C29            5.0386     3.1645    -4.0373 C.3     
  30 C30           -0.6205     0.0552    -2.1948 C.3     
  31 H31           -0.4710     2.1198    -0.6748 H       
  32 H32           -0.3941     2.1285     1.1061 H       
  33 H33           -0.9745    -0.1315     0.4209 H       
  34 H34            1.5618     3.2755    -0.0287 H       
  35 H35            2.0189     1.9577     1.0727 H       
  36 H36            2.1105    -1.1434    -3.0755 H       
  37 H37            4.2182    -0.1498    -3.8496 H       
  38 H38            5.6691     4.5729    -0.6140 H       
  39 H39            4.8672     4.5250    -2.2086 H       
  40 H40            3.1174     4.0334    -0.6827 H       
  41 H41            4.1624     3.0245     0.3300 H       
  42 H42            6.5984     0.3260    -2.8386 H       
  43 H43            6.3112     0.9026    -4.5137 H       
  44 H44            8.6209     1.5116    -3.0810 H       
  45 H45            7.9519     2.5785    -4.3489 H       
  46 H46            7.4119     4.1694    -2.7719 H       
  47 H47            8.5057     2.1512    -0.7484 H       
  48 H48           10.0284     4.3914    -2.2735 H       
  49 H49           10.6531     1.6100    -1.1897 H       
  50 H50           12.3332     3.7962    -2.7406 H       
  51 H51           12.5399    -0.0899    -2.1913 H       
  52 H52           13.8140     0.2893    -1.0076 H       
  53 H53           12.1306     0.7719    -0.6886 H       
  54 H54           15.1087     2.7512    -1.9720 H       
  55 H55           14.9706     1.3361    -3.0429 H       
  56 H56           14.3819     2.9252    -3.5875 H       
  57 H57            7.1635     3.9652     0.2794 H       
  58 H58            8.8926     4.1588     0.6547 H       
  59 H59            8.1331     5.1767    -0.5925 H       
  60 H60            6.8371     0.9635    -0.9501 H       
  61 H61            6.7129     2.2923     0.2276 H       
  62 H62            5.2451     1.4448    -0.3160 H       
  63 H63            0.7314     0.0123     2.0962 H       
  64 H64           -0.2852    -2.2764    -0.8417 H       
  65 H65            0.9618    -2.1623    -2.1067 H       
  66 H66            1.4218    -2.0502    -0.3909 H       
  67 H67            4.2863     3.8478    -3.6434 H       
  68 H68            5.9353     3.7247    -4.3022 H       
  69 H69            4.6473     2.6650    -4.9236 H       
  70 H70           -0.7649     1.1352    -2.2257 H       
  71 H71           -0.3172    -0.2992    -3.1799 H       
  72 H72           -1.5540    -0.4280    -1.9064 H       
@<TRIPOS>BOND
   1    1    2 1
   2    1    6 1
   3    1   31 1
   4    1   32 1
   5    2    3 1
   6    2   27 1
   7    2   33 1
   8    3    4 1
   9    3   28 1
  10    3   30 1
  11    4    5 ar
  12    4    7 ar
  13    5    6 1
  14    5   10 ar
  15    6   34 1
  16    6   35 1
  17    7    8 ar
  18    7   36 1
  19    8    9 ar
  20    8   37 1
  21    9   10 ar
  22    9   11 1
  23   10   14 1
  24   11   12 1
  25   11   15 1
  26   11   29 1
  27   12   13 1
  28   12   26 1
  29   12   17 1
  30   13   14 1
  31   13   38 1
  32   13   39 1
  33   14   40 1
  34   14   41 1
  35   15   16 1
  36   15   42 1
  37   15   43 1
  38   16   17 1
  39   16   44 1
  40   16   45 1
  41   17   18 1
  42   17   46 1
  43   18   19 1
  44   18   25 1
  45   18   47 1
  46   19   20 2
  47   19   48 1
  48   20   21 1
  49   20   49 1
  50   21   22 2
  51   21   50 1
  52   22   23 1
  53   22   24 1
  54   23   51 1
  55   23   52 1
  56   23   53 1
  57   24   54 1
  58   24   55 1
  59   24   56 1
  60   25   57 1
  61   25   58 1
  62   25   59 1
  63   26   60 1
  64   26   61 1
  65   26   62 1
  66   27   63 1
  67   28   64 1
  68   28   65 1
  69   28   66 1
  70   29   67 1
  71   29   68 1
  72   29   69 1
  73   30   70 1
  74   30   71 1
  75   30   72 1

#	End of record

