#	Name: ASD01208640
#	Creating user name:	WinNT
#	Creation time:	15. 06. 2019 19:10

#	Modifying user name:	WinNT
#	Modification time:	15. 06. 2019 19:10

#	Program:	/corina/corina34_cracker 3.40 0067  02.08.2006

@<TRIPOS>MOLECULE
ASD01208640
  36   37    0    0    0
SMALL
NO_CHARGES


@<TRIPOS>ATOM
   1 C1            -0.0167     1.3781     0.0096 C.ar    
   2 C2             0.0021    -0.0041     0.0020 C.ar    
   3 C3             1.2213    -0.6632    -0.0132 C.ar    
   4 C4             2.3826     0.0966    -0.0203 C.ar    
   5 C5             2.2848     1.4762    -0.0119 C.ar    
   6 N6             1.1067     2.0685     0.0026 N.ar    
   7 S7            -1.5603     2.2276     0.0215 S.o2    
   8 O8            -1.8443     2.5628    -1.3299 O.2     
   9 O9            -2.4366     1.4562     0.8316 O.2     
  10 N10           -1.3255     3.6598     0.8191 N.am    
  11 C11           -0.9210     4.8550     0.0748 C.3     
  12 C12           -1.5224     3.7315     2.2691 C.3     
  13 C13           -0.1996     3.5412     2.9656 C.ar    
  14 C14            0.5938     4.6369     3.2515 C.ar    
  15 C15            1.8067     4.4651     3.8899 C.ar    
  16 C16            2.2286     3.1919     4.2442 C.ar    
  17 C17            1.4307     2.0941     3.9562 C.ar    
  18 C18            0.2160     2.2718     3.3227 C.ar    
  19 O19            3.4216     3.0202     4.8719 O.3     
  20 C20            3.7917     1.6812     5.2070 C.3     
  21 Cl21           3.9378    -0.6746    -0.0387 Cl      
  22 H22           -0.9218    -0.5634     0.0082 H       
  23 H23            1.2664    -1.7422    -0.0191 H       
  24 H24            3.1835     2.0751    -0.0173 H       
  25 H25           -1.8084     5.3947    -0.2560 H       
  26 H26           -0.3230     5.4993     0.7193 H       
  27 H27           -0.3307     4.5602    -0.7928 H       
  28 H28           -1.9346     4.7057     2.5320 H       
  29 H29           -2.2133     2.9484     2.5811 H       
  30 H30            0.2651     5.6279     2.9752 H       
  31 H31            2.4263     5.3212     4.1127 H       
  32 H32            1.7569     1.1019     4.2310 H       
  33 H33           -0.4077     1.4180     3.1025 H       
  34 H34            3.0446     1.2544     5.8761 H       
  35 H35            3.8500     1.0822     4.2982 H       
  36 H36            4.7627     1.6857     5.7021 H       
@<TRIPOS>BOND
   1    1    2 ar
   2    1    6 ar
   3    1    7 1
   4    2    3 ar
   5    2   22 1
   6    3    4 ar
   7    3   23 1
   8    4    5 ar
   9    4   21 1
  10    5    6 ar
  11    5   24 1
  12    7    8 2
  13    7    9 2
  14    7   10 am
  15   10   11 1
  16   10   12 1
  17   11   25 1
  18   11   26 1
  19   11   27 1
  20   12   13 1
  21   12   28 1
  22   12   29 1
  23   13   14 ar
  24   13   18 ar
  25   14   15 ar
  26   14   30 1
  27   15   16 ar
  28   15   31 1
  29   16   17 ar
  30   16   19 1
  31   17   18 ar
  32   17   32 1
  33   18   33 1
  34   19   20 1
  35   20   34 1
  36   20   35 1
  37   20   36 1

#	End of record

