#	Name: ASD01917737
#	Creating user name:	WinNT
#	Creation time:	15. 06. 2019 20:09

#	Modifying user name:	WinNT
#	Modification time:	15. 06. 2019 20:09

#	Program:	/corina/corina34_cracker 3.40 0067  02.08.2006

@<TRIPOS>MOLECULE
ASD01917737
  49   52    0    0    0
SMALL
NO_CHARGES


@<TRIPOS>ATOM
   1 C1             0.6791     0.4176    -0.1407 C.ar    
   2 C2             0.8205    -0.9589    -0.1264 C.ar    
   3 C3             2.0800    -1.5317    -0.1021 C.ar    
   4 C4             3.2044    -0.7331    -0.0923 C.ar    
   5 C5             3.0694     0.6577    -0.1070 C.ar    
   6 C6             1.7943     1.2289    -0.1312 C.ar    
   7 C7             4.2322     1.4935    -0.0965 C.1     
   8 C8             5.1854     2.1787    -0.0879 C.1     
   9 C9             6.3481     3.0146    -0.0774 C.ar    
  10 C10            6.2305     4.4109    -0.0920 C.ar    
  11 N11            7.3278     5.1455    -0.0811 N.ar    
  12 C12            8.5256     4.5799    -0.0569 C.ar    
  13 N13            8.6800     3.2641    -0.0429 N.ar    
  14 C14            7.6339     2.4581    -0.0464 C.ar    
  15 N15            9.6527     5.3901    -0.0462 N.am    
  16 C16            9.6444     6.7290    -0.0580 C.2     
  17 N17           10.8647     7.2802    -0.0436 N.am    
  18 C18           11.8782     6.2159    -0.0184 C.3     
  19 C19           11.0426     4.9131    -0.0138 C.3     
  20 C20           12.6227     6.2542     1.3312 C.3     
  21 C21           11.7665     5.3650     2.2660 C.3     
  22 C22           11.3208     4.2216     1.3359 C.3     
  23 H23           12.5518     6.2725    -0.8734 H       
  24 H24           11.2706     4.2765    -0.8687 H       
  25 C25           11.1455     8.7180    -0.0522 C.3     
  26 O26            8.6212     7.3852    -0.0805 O.2     
  27 C27           11.3956     9.1802    -1.4892 C.3     
  28 O28           10.1965     9.0333    -2.2523 O.3     
  29 C29           10.3224     9.4392    -3.6167 C.3     
  30 H30           -0.3069     0.8575    -0.1639 H       
  31 H31           -0.0564    -1.5893    -0.1340 H       
  32 H32            2.1827    -2.6068    -0.0903 H       
  33 H33            4.1867    -1.1815    -0.0729 H       
  34 H34            1.6825     2.3030    -0.1431 H       
  35 H35            5.2575     4.8790    -0.1121 H       
  36 H36            7.7673     1.3865    -0.0346 H       
  37 H37           13.6256     5.8407     1.2250 H       
  38 H38           12.6685     7.2744     1.7123 H       
  39 H39           12.3679     4.9782     3.0888 H       
  40 H40           10.9050     5.9168     2.6419 H       
  41 H41           10.4126     3.7536     1.7155 H       
  42 H42           12.1160     3.4835     1.2312 H       
  43 H43           10.2925     9.2572     0.3596 H       
  44 H44           12.0293     8.9192     0.5532 H       
  45 H45           11.6987    10.2272    -1.4865 H       
  46 H46           12.1855     8.5744    -1.9334 H       
  47 H47           10.6032    10.4916    -3.6581 H       
  48 H48           11.0900     8.8389    -4.1050 H       
  49 H49            9.3701     9.2968    -4.1275 H       
@<TRIPOS>BOND
   1    1    2 ar
   2    1    6 ar
   3    1   30 1
   4    2    3 ar
   5    2   31 1
   6    3    4 ar
   7    3   32 1
   8    4    5 ar
   9    4   33 1
  10    5    6 ar
  11    5    7 1
  12    6   34 1
  13    7    8 3
  14    8    9 1
  15    9   10 ar
  16    9   14 ar
  17   10   11 ar
  18   10   35 1
  19   11   12 ar
  20   12   13 ar
  21   12   15 1
  22   13   14 ar
  23   14   36 1
  24   15   16 am
  25   15   19 1
  26   16   17 am
  27   16   26 2
  28   17   18 1
  29   17   25 1
  30   18   19 1
  31   18   20 1
  32   18   23 1
  33   19   24 1
  34   19   22 1
  35   20   21 1
  36   20   37 1
  37   20   38 1
  38   21   22 1
  39   21   39 1
  40   21   40 1
  41   22   41 1
  42   22   42 1
  43   25   27 1
  44   25   43 1
  45   25   44 1
  46   27   28 1
  47   27   45 1
  48   27   46 1
  49   28   29 1
  50   29   47 1
  51   29   48 1
  52   29   49 1

#	End of record

