#	Name: ASD03090350
#	Creating user name:	WinNT
#	Creation time:	15. 06. 2019 20:28

#	Modifying user name:	WinNT
#	Modification time:	15. 06. 2019 20:28

#	Program:	/corina/corina34_cracker 3.40 0067  02.08.2006

@<TRIPOS>MOLECULE
ASD03090350
  49   53    0    0    0
SMALL
NO_CHARGES


@<TRIPOS>ATOM
   1 N1            -0.0133     1.1310     1.2678 N.ar    
   2 C2             0.0498    -0.1868     1.2608 C.ar    
   3 C3             1.2394    -0.8377     1.0072 C.ar    
   4 C4             2.3876    -0.0789     0.7550 C.ar    
   5 C5             2.2744     1.3152     0.7720 C.ar    
   6 C6             1.0446     1.8835     1.0351 C.ar    
   7 C7             3.6861    -0.7332     0.4785 C.2     
   8 N8             5.7108    -3.4478    -0.4622 N.pl3   
   9 C9             4.8740    -4.5017    -0.8468 C.ar    
  10 C10            3.6686    -4.2349    -1.4819 C.ar    
  11 C11            2.8410    -5.2783    -1.8621 C.ar    
  12 C12            3.2201    -6.5938    -1.6063 C.ar    
  13 C13            4.4234    -6.8559    -0.9716 C.ar    
  14 C14            5.2518    -5.8148    -0.5982 C.ar    
  15 N15            3.8585    -1.9815     0.0928 N.2     
  16 C16            5.1597    -2.2289    -0.0625 C.2     
  17 N17            5.8393    -1.1414     0.2217 N.2     
  18 N18            4.9039    -0.1541     0.5712 N.pl3   
  19 C19            5.1913     1.2273     0.9654 C.3     
  20 C20            5.2376     2.1006    -0.2619 C.2     
  21 N21            5.4885     3.4193    -0.1415 N.am    
  22 O22            1.6281    -5.2876    -2.4885 O.3     
  23 C23            1.4590    -6.6305    -2.9796 C.3     
  24 O24            2.2437    -7.4276    -2.0731 O.3     
  25 F25            0.1128    -7.0074    -2.9265 F       
  26 F26            1.9510    -6.7423    -4.2845 F       
  27 O27            5.0492     1.6168    -1.3579 O.2     
  28 C28           -1.1945    -0.9919     1.5340 C.3     
  29 C29            5.6122     4.5618    -1.0592 C.3     
  30 C30            6.5393     5.2203    -0.0281 C.3     
  31 C31            5.7526     4.3502     0.9660 C.3     
  32 H32            1.2839    -1.9168     1.0038 H       
  33 H33            3.1366     1.9375     0.5827 H       
  34 H34            0.9471     2.9590     1.0504 H       
  35 H35            6.6738    -3.5643    -0.4733 H       
  36 H36            3.3763    -3.2141    -1.6791 H       
  37 H37            4.7170    -7.8761    -0.7730 H       
  38 H38            6.1892    -6.0220    -0.1036 H       
  39 H39            4.4093     1.5840     1.6358 H       
  40 H40            6.1535     1.2667     1.4760 H       
  41 H41           -1.7117    -1.1911     0.5955 H       
  42 H42           -0.9203    -1.9358     2.0052 H       
  43 H43           -1.8514    -0.4312     2.1990 H       
  44 H44            6.1114     4.3141    -1.9960 H       
  45 H45            4.6771     5.1014    -1.2092 H       
  46 H46            7.5894     4.9471    -0.1325 H       
  47 H47            6.3806     6.2915     0.0958 H       
  48 H48            4.8565     4.8354     1.3528 H       
  49 H49            6.3731     3.9209     1.7527 H       
@<TRIPOS>BOND
   1    1    2 ar
   2    1    6 ar
   3    2    3 ar
   4    2   28 1
   5    3    4 ar
   6    3   32 1
   7    4    5 ar
   8    4    7 1
   9    5    6 ar
  10    5   33 1
  11    6   34 1
  12    7   15 2
  13    7   18 1
  14    8    9 1
  15    8   16 1
  16    8   35 1
  17    9   10 ar
  18    9   14 ar
  19   10   11 ar
  20   10   36 1
  21   11   12 ar
  22   11   22 1
  23   12   13 ar
  24   12   24 1
  25   13   14 ar
  26   13   37 1
  27   14   38 1
  28   15   16 1
  29   16   17 2
  30   17   18 1
  31   18   19 1
  32   19   20 1
  33   19   39 1
  34   19   40 1
  35   20   21 am
  36   20   27 2
  37   21   29 1
  38   21   31 1
  39   22   23 1
  40   23   24 1
  41   23   25 1
  42   23   26 1
  43   28   41 1
  44   28   42 1
  45   28   43 1
  46   29   30 1
  47   29   44 1
  48   29   45 1
  49   30   31 1
  50   30   46 1
  51   30   47 1
  52   31   48 1
  53   31   49 1

#	End of record

