#	Name: ASD01814493
#	Creating user name:	WinNT
#	Creation time:	15. 06. 2019 19:32

#	Modifying user name:	WinNT
#	Modification time:	15. 06. 2019 19:32

#	Program:	/corina/corina34_cracker 3.40 0067  02.08.2006

@<TRIPOS>MOLECULE
ASD01814493
  63   68    0    0    0
SMALL
NO_CHARGES


@<TRIPOS>ATOM
   1 C1            -0.0167     1.3811     0.0096 C.ar    
   2 C2             0.0021    -0.0041     0.0020 C.ar    
   3 N3             1.1324    -0.6805    -0.0120 N.ar    
   4 C4             2.3086    -0.0705    -0.0199 C.ar    
   5 C5             2.3609     1.3370    -0.0133 C.ar    
   6 C6             1.1828     2.0751     0.0019 C.ar    
   7 N7             3.4842    -0.7898    -0.0340 N.pl3   
   8 N8             4.6484    -0.2529    -0.0414 N.2     
   9 C9             4.8548     1.0375    -0.0367 C.2     
  10 C10            3.6945     1.9630    -0.0221 C.2     
  11 C11            3.3985    -2.2523    -0.0406 C.3     
  12 C12            3.3563    -2.7467    -1.4636 C.ar    
  13 C13            4.5344    -3.0428    -2.1253 C.ar    
  14 C14            4.5017    -3.4959    -3.4285 C.ar    
  15 C15            3.2789    -3.6553    -4.0776 C.ar    
  16 C16            2.0952    -3.3559    -3.4059 C.ar    
  17 C17            2.1395    -2.9080    -2.1012 C.ar    
  18 C18            3.2374    -4.1415    -5.4786 C.ar    
  19 C19            6.0310     1.9111    -0.0430 C.2     
  20 N20            5.5596     3.1765    -0.0328 N.am    
  21 N21            4.1626     3.1749    -0.0205 N.2     
  22 O22            7.2004     1.5650    -0.0550 O.2     
  23 C23            6.3947     4.3802    -0.0345 C.3     
  24 C24            6.0824     5.2182    -1.2782 C.3     
  25 C25            6.9038     6.5102    -1.2293 C.3     
  26 C26            6.5884     7.2575     0.0690 C.3     
  27 O27            6.8720     6.4113     1.1851 O.3     
  28 C28            6.0989     5.2098     1.2177 C.3     
  29 C29            4.4153    -4.4422    -6.1561 C.ar    
  30 N30            4.3838    -4.8740    -7.4011 N.ar    
  31 C31            3.2427    -5.0388    -8.0529 C.ar    
  32 C32            2.0239    -4.7586    -7.4408 C.ar    
  33 C33            2.0127    -4.3096    -6.1353 C.ar    
  34 N34            3.2622    -5.4965    -9.3643 N.pl3   
  35 C35            2.0160    -5.5781   -10.1303 C.3     
  36 C36            4.5289    -5.8978    -9.9814 C.3     
  37 H37           -0.9559     1.9142     0.0170 H       
  38 H38           -0.9338    -0.5431     0.0080 H       
  39 H39            1.2018     3.1549     0.0075 H       
  40 H40            4.2703    -2.6696     0.4634 H       
  41 H41            2.4934    -2.5656     0.4798 H       
  42 H42            5.4815    -2.9189    -1.6213 H       
  43 H43            5.4221    -3.7262    -3.9445 H       
  44 H44            1.1448    -3.4772    -3.9043 H       
  45 H45            1.2227    -2.6760    -1.5796 H       
  46 H46            7.4464     4.0940    -0.0429 H       
  47 H47            6.3435     4.6537    -2.1732 H       
  48 H48            5.0201     5.4620    -1.2962 H       
  49 H49            7.9661     6.2678    -1.2613 H       
  50 H50            6.6466     7.1378    -2.0826 H       
  51 H51            7.2019     8.1564     0.1293 H       
  52 H52            5.5344     7.5350     0.0819 H       
  53 H53            5.0385     5.4606     1.2455 H       
  54 H54            6.3598     4.6337     2.1054 H       
  55 H55            5.3650    -4.3200    -5.6567 H       
  56 H56            1.0978    -4.8954    -7.9794 H       
  57 H57            1.0820    -4.0847    -5.6358 H       
  58 H58            1.8491    -4.6367   -10.6538 H       
  59 H59            2.0874    -6.3891   -10.8550 H       
  60 H60            1.1845    -5.7690    -9.4520 H       
  61 H61            4.7009    -6.9589    -9.8009 H       
  62 H62            4.4842    -5.7144   -11.0549 H       
  63 H63            5.3439    -5.3186    -9.5475 H       
@<TRIPOS>BOND
   1    1    2 ar
   2    1    6 ar
   3    1   37 1
   4    2    3 ar
   5    2   38 1
   6    3    4 ar
   7    4    5 ar
   8    4    7 1
   9    5    6 ar
  10    5   10 1
  11    6   39 1
  12    7    8 1
  13    7   11 1
  14    8    9 2
  15    9   10 1
  16    9   19 1
  17   10   21 2
  18   11   12 1
  19   11   40 1
  20   11   41 1
  21   12   13 ar
  22   12   17 ar
  23   13   14 ar
  24   13   42 1
  25   14   15 ar
  26   14   43 1
  27   15   16 ar
  28   15   18 1
  29   16   17 ar
  30   16   44 1
  31   17   45 1
  32   18   29 ar
  33   18   33 ar
  34   19   20 am
  35   19   22 2
  36   20   21 1
  37   20   23 1
  38   23   24 1
  39   23   28 1
  40   23   46 1
  41   24   25 1
  42   24   47 1
  43   24   48 1
  44   25   26 1
  45   25   49 1
  46   25   50 1
  47   26   27 1
  48   26   51 1
  49   26   52 1
  50   27   28 1
  51   28   53 1
  52   28   54 1
  53   29   30 ar
  54   29   55 1
  55   30   31 ar
  56   31   32 ar
  57   31   34 1
  58   32   33 ar
  59   32   56 1
  60   33   57 1
  61   34   35 1
  62   34   36 1
  63   35   58 1
  64   35   59 1
  65   35   60 1
  66   36   61 1
  67   36   62 1
  68   36   63 1

#	End of record

