#	Name: ASD00310480
#	Creating user name:	WinNT
#	Creation time:	15. 06. 2019 18:34

#	Modifying user name:	WinNT
#	Modification time:	15. 06. 2019 18:34

#	Program:	/corina/corina34_cracker 3.40 0067  02.08.2006

@<TRIPOS>MOLECULE
ASD00310480
  43   46    0    0    0
SMALL
NO_CHARGES


@<TRIPOS>ATOM
   1 N1            -0.0163     1.3500     0.0061 N.pl3   
   2 C2             0.0019    -0.0038    -0.0181 C.2     
   3 C3             1.2919    -0.4480    -0.0407 C.2     
   4 C4             2.1473     0.7541    -0.0293 C.ar    
   5 C5             3.5228     0.9585    -0.0414 C.ar    
   6 C6             4.0239     2.2538    -0.0243 C.ar    
   7 C7             3.1467     3.3435     0.0051 C.ar    
   8 C8             1.7851     3.1434     0.0171 C.ar    
   9 C9             1.2694     1.8502     0.0002 C.ar    
  10 C10            1.7398    -1.8449    -0.0702 C.2     
  11 O11            2.9281    -2.1021    -0.0879 O.2     
  12 O12            0.8336    -2.8435    -0.0775 O.3     
  13 C13            5.4898     2.4821    -0.0365 C.ar    
  14 C14            6.0515     3.3713    -0.9507 C.ar    
  15 C15            7.4157     3.5802    -0.9574 C.ar    
  16 C16            8.2252     2.9084    -0.0591 C.ar    
  17 C17            7.6731     2.0246     0.8505 C.ar    
  18 C18            6.3095     1.8124     0.8699 C.ar    
  19 C19            9.7143     3.1399    -0.0719 C.3     
  20 C20           10.1085     4.6209     0.0546 C.3     
  21 C21           11.2474     4.1575     0.9782 C.3     
  22 C22           10.3827     2.9264     1.2965 C.3     
  23 C23           10.4185     2.4142    -1.2200 C.3     
  24 O24           10.0167     1.0429    -1.2344 O.3     
  25 Cl25           3.7804     4.9595     0.0270 Cl      
  26 H26           -0.8206     1.8922     0.0212 H       
  27 H27           -0.8732    -0.6369    -0.0193 H       
  28 H28            4.1973     0.1153    -0.0637 H       
  29 H29            1.1158     3.9907     0.0398 H       
  30 H30            1.1766    -3.7474    -0.0971 H       
  31 H31            5.4205     3.8958    -1.6529 H       
  32 H32            7.8521     4.2691    -1.6654 H       
  33 H33            8.3098     1.5025     1.5493 H       
  34 H34            5.8789     1.1256     1.5835 H       
  35 H35           10.4561     5.0616    -0.8798 H       
  36 H36            9.3587     5.2309     0.5584 H       
  37 H37           12.1694     3.9183     0.4483 H       
  38 H38           11.4082     4.8116     1.8352 H       
  39 H39            9.7077     3.0731     2.1397 H       
  40 H40           10.9515     1.9991     1.3647 H       
  41 H41           10.1474     2.8821    -2.1664 H       
  42 H42           11.4979     2.4751    -1.0806 H       
  43 H43           10.4253     0.5207    -1.9383 H       
@<TRIPOS>BOND
   1    1    2 1
   2    1    9 1
   3    1   26 1
   4    2    3 2
   5    2   27 1
   6    3    4 1
   7    3   10 1
   8    4    5 ar
   9    4    9 ar
  10    5    6 ar
  11    5   28 1
  12    6    7 ar
  13    6   13 1
  14    7    8 ar
  15    7   25 1
  16    8    9 ar
  17    8   29 1
  18   10   11 2
  19   10   12 1
  20   12   30 1
  21   13   14 ar
  22   13   18 ar
  23   14   15 ar
  24   14   31 1
  25   15   16 ar
  26   15   32 1
  27   16   17 ar
  28   16   19 1
  29   17   18 ar
  30   17   33 1
  31   18   34 1
  32   19   20 1
  33   19   22 1
  34   19   23 1
  35   20   21 1
  36   20   35 1
  37   20   36 1
  38   21   22 1
  39   21   37 1
  40   21   38 1
  41   22   39 1
  42   22   40 1
  43   23   24 1
  44   23   41 1
  45   23   42 1
  46   24   43 1

#	End of record

