#	Name: ASD01813642
#	Creating user name:	WinNT
#	Creation time:	15. 06. 2019 19:30

#	Modifying user name:	WinNT
#	Modification time:	15. 06. 2019 19:30

#	Program:	/corina/corina34_cracker 3.40 0067  02.08.2006

@<TRIPOS>MOLECULE
ASD01813642
  47   50    0    0    0
SMALL
NO_CHARGES


@<TRIPOS>ATOM
   1 C1             0.0979     1.4754     0.3562 C.ar    
   2 C2             0.0799     0.0882     0.3484 C.ar    
   3 C3             1.2501    -0.6307     0.2177 C.ar    
   4 C4             2.4672     0.0383     0.0918 C.ar    
   5 C5             2.4807     1.4430     0.1001 C.ar    
   6 C6             1.2892     2.1559     0.2332 C.ar    
   7 N7             3.6443    -0.6677    -0.0386 N.pl3   
   8 C8             4.8373    -0.0728    -0.1611 C.2     
   9 C9             4.9774     1.3006    -0.1659 C.2     
  10 C10            3.7745     2.1383    -0.0339 C.2     
  11 O11            3.8448     3.3548    -0.0328 O.2     
  12 C12            6.3052     1.9159    -0.3016 C.2     
  13 O13            6.4289     3.2582    -0.3049 O.3     
  14 O14            7.2919     1.2142    -0.4107 O.2     
  15 C15            3.5871    -2.1316    -0.0427 C.3     
  16 C16            3.4445    -2.6248    -1.4595 C.ar    
  17 C17            4.5596    -2.7692    -2.2634 C.ar    
  18 N18            4.4483    -3.1990    -3.5042 N.ar    
  19 C19            3.2701    -3.5092    -4.0296 C.ar    
  20 C20            2.1041    -3.3873    -3.2754 C.ar    
  21 C21            2.1928    -2.9437    -1.9678 C.ar    
  22 F22            1.2170    -1.9813     0.2123 F       
  23 C23            3.1929    -3.9889    -5.4301 C.ar    
  24 C24            4.3570    -4.1141    -6.1949 C.ar    
  25 C25            4.2752    -4.5639    -7.5034 C.ar    
  26 C26            3.0476    -4.8865    -8.0490 C.ar    
  27 C27            1.8937    -4.7632    -7.2947 C.ar    
  28 C28            1.9607    -4.3226    -5.9889 C.ar    
  29 O29            5.5630    -3.7958    -5.6577 O.3     
  30 F30            6.5717    -3.1318    -7.6258 F       
  31 F31            7.8580    -3.5797    -5.7917 F       
  32 C32            6.7084    -3.9487    -6.4983 C.3     
  33 F33            6.8167    -5.2842    -6.9005 F       
  34 H34           -0.8269     2.0244     0.4548 H       
  35 H35           -0.8601    -0.4345     0.4461 H       
  36 H36            1.3005     3.2358     0.2392 H       
  37 H37            5.7197    -0.6878    -0.2590 H       
  38 H38            7.3224     3.6165    -0.3966 H       
  39 H39            4.5033    -2.5323     0.3910 H       
  40 H40            2.7314    -2.4634     0.5454 H       
  41 H41            5.5354    -2.5261    -1.8695 H       
  42 H42            1.1456    -3.6398    -3.7042 H       
  43 H43            1.3068    -2.8392    -1.3590 H       
  44 H44            5.1720    -4.6619    -8.0972 H       
  45 H45            2.9881    -5.2363    -9.0690 H       
  46 H46            0.9377    -5.0167    -7.7285 H       
  47 H47            1.0582    -4.2280    -5.4033 H       
@<TRIPOS>BOND
   1    1    2 ar
   2    1    6 ar
   3    1   34 1
   4    2    3 ar
   5    2   35 1
   6    3    4 ar
   7    3   22 1
   8    4    5 ar
   9    4    7 1
  10    5    6 ar
  11    5   10 1
  12    6   36 1
  13    7    8 1
  14    7   15 1
  15    8    9 2
  16    8   37 1
  17    9   10 1
  18    9   12 1
  19   10   11 2
  20   12   13 1
  21   12   14 2
  22   13   38 1
  23   15   16 1
  24   15   39 1
  25   15   40 1
  26   16   17 ar
  27   16   21 ar
  28   17   18 ar
  29   17   41 1
  30   18   19 ar
  31   19   20 ar
  32   19   23 1
  33   20   21 ar
  34   20   42 1
  35   21   43 1
  36   23   24 ar
  37   23   28 ar
  38   24   25 ar
  39   24   29 1
  40   25   26 ar
  41   25   44 1
  42   26   27 ar
  43   26   45 1
  44   27   28 ar
  45   27   46 1
  46   28   47 1
  47   29   32 1
  48   30   32 1
  49   31   32 1
  50   32   33 1

#	End of record

