#	Name: ASD01151029
#	Creating user name:	WinNT
#	Creation time:	15. 06. 2019 19:05

#	Modifying user name:	WinNT
#	Modification time:	15. 06. 2019 19:05

#	Program:	/corina/corina34_cracker 3.40 0067  02.08.2006

@<TRIPOS>MOLECULE
ASD01151029
  36   36    0    0    0
SMALL
NO_CHARGES


@<TRIPOS>ATOM
   1 P1            -0.0198     1.6058     0.0109 P.3     
   2 O2             0.0021    -0.0041     0.0020 O.3     
   3 O3             1.3687     2.1180     0.0004 O.2     
   4 N4            -0.0065     1.9018     5.1928 N.3     
   5 C5            -0.1178     1.8224    -2.7217 C.3     
   6 C6            -1.0125     1.9860    -3.9520 C.3     
   7 C7             1.1074     2.7286    -2.8580 C.3     
   8 C8            -0.9015     2.2097    -1.4660 C.3     
   9 C9            -0.2289     1.5988    -5.2077 C.3     
  10 C10            1.8911     2.3413    -4.1137 C.3     
  11 C11            0.9963     2.5050    -5.3440 C.3     
  12 C12           -0.8730     2.1937     1.5107 C.3     
  13 C13           -0.0656     1.7930     2.7470 C.3     
  14 C14           -0.7817     2.2864     4.0058 C.3     
  15 H15            0.2051     0.7843    -2.6428 H       
  16 H16           -1.8854     1.3405    -3.8549 H       
  17 H17           -1.3354     3.0241    -4.0309 H       
  18 H18            0.7845     3.7667    -2.9369 H       
  19 H19            1.7448     2.6120    -1.9815 H       
  20 H20           -1.8944     1.7617    -1.5049 H       
  21 H21           -0.9940     3.2946    -1.4157 H       
  22 H22            0.0940     0.5607    -5.1288 H       
  23 H23           -0.8663     1.7154    -6.0842 H       
  24 H24            2.7639     2.9869    -4.2108 H       
  25 H25            2.2139     1.3032    -4.0348 H       
  26 H26            1.5546     2.2291    -6.2386 H       
  27 H27            0.6735     3.5431    -5.4229 H       
  28 H28           -0.9664     3.2790     1.4738 H       
  29 H29           -1.8651     1.7453     1.5637 H       
  30 H30            0.0278     0.7077     2.7840 H       
  31 H31            0.9265     2.2414     2.6940 H       
  32 H32           -0.8759    -0.4094     0.0082 H       
  33 H33           -1.7738     1.8380     4.0588 H       
  34 H34           -0.8751     3.3718     3.9689 H       
  35 H35           -0.4590     2.2165     6.0379 H       
  36 H36            0.1492     0.9051     5.2156 H       
@<TRIPOS>BOND
   1    1    2 1
   2    1    3 2
   3    1    8 1
   4    1   12 1
   5    2   32 1
   6    4   14 1
   7    4   35 1
   8    4   36 1
   9    5    6 1
  10    5    7 1
  11    5    8 1
  12    5   15 1
  13    6    9 1
  14    6   16 1
  15    6   17 1
  16    7   10 1
  17    7   18 1
  18    7   19 1
  19    8   20 1
  20    8   21 1
  21    9   11 1
  22    9   22 1
  23    9   23 1
  24   10   11 1
  25   10   24 1
  26   10   25 1
  27   11   26 1
  28   11   27 1
  29   12   13 1
  30   12   28 1
  31   12   29 1
  32   13   14 1
  33   13   30 1
  34   13   31 1
  35   14   33 1
  36   14   34 1

#	End of record

