#	Name: ASD00192099
#	Creating user name:	WinNT
#	Creation time:	15. 06. 2019 18:33

#	Modifying user name:	WinNT
#	Modification time:	15. 06. 2019 18:33

#	Program:	/corina/corina34_cracker 3.40 0067  02.08.2006

@<TRIPOS>MOLECULE
ASD00192099
  60   65    0    0    0
SMALL
NO_CHARGES


@<TRIPOS>ATOM
   1 C1            -0.0154     1.3890     0.0343 C.ar    
   2 C2             0.0026    -0.0010     0.0128 C.ar    
   3 C3             1.1801    -0.6876    -0.0097 C.ar    
   4 C4             2.3965     0.0123    -0.0112 C.ar    
   5 C5             2.3719     1.4269     0.0108 C.ar    
   6 C6             1.1497     2.1011     0.0336 C.ar    
   7 N7             3.5674    -0.6415    -0.0326 N.ar    
   8 C8             4.7273    -0.0214    -0.0343 C.ar    
   9 C9             4.8190     1.3796    -0.0132 C.ar    
  10 C10            3.6478     2.1441     0.0089 C.ar    
  11 N11            5.8587     2.2833    -0.0090 N.pl3   
  12 C12            5.3155     3.5207     0.0156 C.2     
  13 N13            4.0134     3.4342     0.0259 N.2     
  14 N14            5.8931    -0.7726    -0.0572 N.pl3   
  15 C15            5.8289    -2.1658     0.0415 C.ar    
  16 C16            6.7404    -2.9548    -0.6485 C.ar    
  17 C17            4.8573    -2.7630     0.8341 C.ar    
  18 C18            4.7956    -4.1396     0.9302 C.ar    
  19 C19            5.7009    -4.9241     0.2382 C.ar    
  20 C20            6.6745    -4.3315    -0.5491 C.ar    
  21 Cl21           5.6207    -6.6538     0.3619 Cl      
  22 Cl22           7.8085    -5.3192    -1.4165 Cl      
  23 C23            6.0974     4.8089     0.0288 C.3     
  24 C24            6.4832     5.1577     1.4681 C.3     
  25 N25            7.2632     6.4019     1.4793 N.3     
  26 C26            8.5112     6.2531     0.7199 C.3     
  27 C27            8.1860     5.9370    -0.7417 C.3     
  28 C28            7.3682     4.6442    -0.8095 C.3     
  29 C29            8.5318     7.9701     2.8344 C.ar    
  30 C30            8.0945     9.2786     2.7479 C.ar    
  31 C31            9.0104    10.3139     2.7351 C.ar    
  32 C32           10.3634    10.0408     2.8093 C.ar    
  33 C33           10.8006     8.7323     2.8967 C.ar    
  34 C34            9.8848     7.6969     2.9081 C.ar    
  35 C35            7.5331     6.8417     2.8547 C.3     
  36 H36           -0.9607     1.9111     0.0474 H       
  37 H37           -0.9304    -0.5450     0.0142 H       
  38 H38            1.1769    -1.7675    -0.0259 H       
  39 H39            1.1259     3.1807     0.0508 H       
  40 H40            6.8051     2.0709    -0.0210 H       
  41 H41            6.7528    -0.3315    -0.1416 H       
  42 H42            7.4995    -2.4929    -1.2623 H       
  43 H43            4.1506    -2.1514     1.3753 H       
  44 H44            4.0401    -4.6040     1.5466 H       
  45 H45            5.4868     5.6096    -0.3885 H       
  46 H46            5.5803     5.2897     2.0642 H       
  47 H47            7.0817     4.3501     1.8895 H       
  48 H48            9.0813     7.1806     0.7727 H       
  49 H49            9.1002     5.4403     1.1449 H       
  50 H50            7.6087     6.7557    -1.1714 H       
  51 H51            9.1126     5.8112    -1.3017 H       
  52 H52            7.9598     3.8179    -0.4156 H       
  53 H53            7.0973     4.4384    -1.8450 H       
  54 H54            7.0374     9.4920     2.6900 H       
  55 H55            8.6688    11.3362     2.6668 H       
  56 H56           11.0790    10.8496     2.7985 H       
  57 H57           11.8578     8.5189     2.9539 H       
  58 H58           10.2265     6.6746     2.9757 H       
  59 H59            6.6064     7.1848     3.3148 H       
  60 H60            7.9376     6.0087     3.4297 H       
@<TRIPOS>BOND
   1    1    2 ar
   2    1    6 ar
   3    1   36 1
   4    2    3 ar
   5    2   37 1
   6    3    4 ar
   7    3   38 1
   8    4    5 ar
   9    4    7 ar
  10    5    6 ar
  11    5   10 ar
  12    6   39 1
  13    7    8 ar
  14    8    9 ar
  15    8   14 1
  16    9   10 ar
  17    9   11 1
  18   10   13 1
  19   11   12 1
  20   11   40 1
  21   12   13 2
  22   12   23 1
  23   14   15 1
  24   14   41 1
  25   15   16 ar
  26   15   17 ar
  27   16   20 ar
  28   16   42 1
  29   17   18 ar
  30   17   43 1
  31   18   19 ar
  32   18   44 1
  33   19   20 ar
  34   19   21 1
  35   20   22 1
  36   23   24 1
  37   23   28 1
  38   23   45 1
  39   24   25 1
  40   24   46 1
  41   24   47 1
  42   25   26 1
  43   25   35 1
  44   26   27 1
  45   26   48 1
  46   26   49 1
  47   27   28 1
  48   27   50 1
  49   27   51 1
  50   28   52 1
  51   28   53 1
  52   29   30 ar
  53   29   34 ar
  54   29   35 1
  55   30   31 ar
  56   30   54 1
  57   31   32 ar
  58   31   55 1
  59   32   33 ar
  60   32   56 1
  61   33   34 ar
  62   33   57 1
  63   34   58 1
  64   35   59 1
  65   35   60 1

#	End of record

