#	Name: ASD03331822
#	Creating user name:	WinNT
#	Creation time:	15. 06. 2019 20:39

#	Modifying user name:	WinNT
#	Modification time:	15. 06. 2019 20:39

#	Program:	/corina/corina34_cracker 3.40 0067  02.08.2006

@<TRIPOS>MOLECULE
ASD03331822
  71   75    0    0    0
SMALL
NO_CHARGES


@<TRIPOS>ATOM
   1 C1            -0.0226     1.3566    -0.0782 C.2     
   2 N2            -0.0086    -0.0008    -0.1403 N.pl3   
   3 C3            -1.2876    -0.4318     0.0171 C.2     
   4 N4            -2.0658     0.6165     0.1683 N.2     
   5 C5            -1.3099     1.7371     0.1171 C.2     
   6 C6             1.2113     2.2122    -0.2056 C.3     
   7 N7             2.3886     1.3440    -0.0234 N.3     
   8 C8             2.3033     0.1490    -0.8747 C.3     
   9 C9             1.2102    -0.7886    -0.3459 C.3     
  10 C10           -1.7976     3.1218     0.2444 C.2     
  11 O11           -1.0149     4.0505     0.1814 O.2     
  12 N12           -3.1112     3.3591     0.4306 N.am    
  13 C13           -3.5962     4.7358     0.5572 C.3     
  14 C14           -3.4573     5.1938     2.0104 C.3     
  15 C15           -5.0450     4.7977     0.1472 C.2     
  16 C16           -1.9864     5.1309     2.4266 C.3     
  17 C17           -3.9638     6.6315     2.1426 C.3     
  18 C18           -1.7299    -1.8438     0.0177 C.ar    
  19 C19           -0.8029    -2.8681     0.2116 C.ar    
  20 C20           -1.2216    -4.1828     0.2111 C.ar    
  21 C21           -2.5576    -4.4862     0.0184 C.ar    
  22 C22           -3.4818    -3.4749    -0.1749 C.ar    
  23 C23           -3.0767    -2.1560    -0.1699 C.ar    
  24 N24           -5.5993     5.6981    -0.6283 N.2     
  25 C25           -4.2830     4.2770     2.9152 C.3     
  26 C26           -6.8966     5.3536    -0.7132 C.2     
  27 N27           -7.0620     4.2811     0.0018 N.2     
  28 O28           -6.0092     3.9421     0.4999 O.3     
  29 C29           -7.9628     6.0784    -1.4936 C.3     
  30 C30            3.6323     2.0833    -0.2770 C.3     
  31 C31           -7.5825     6.1026    -2.9754 C.3     
  32 C32           -9.3004     5.3558    -1.3221 C.3     
  33 C33           -8.0877     7.5126    -0.9757 C.3     
  34 C34            4.9526     1.3554    -0.0162 C.3     
  35 C35            4.4989     1.6262    -1.4521 C.3     
  36 H36            1.2412     2.6708    -1.1939 H       
  37 H37            1.2030     2.9872     0.5608 H       
  38 H38            2.0624     0.4474    -1.8950 H       
  39 H39            3.2614    -0.3707    -0.8668 H       
  40 H40            1.5282    -1.2277     0.5997 H       
  41 H41            1.0194    -1.5780    -1.0729 H       
  42 H42           -3.7355     2.6185     0.4808 H       
  43 H43           -3.0079     5.3889    -0.0874 H       
  44 H44           -1.3981     5.7841     1.7820 H       
  45 H45           -1.8875     5.4572     3.4619 H       
  46 H46           -1.6256     4.1067     2.3324 H       
  47 H47           -5.0117     6.6763     1.8460 H       
  48 H48           -3.8649     6.9578     3.1779 H       
  49 H49           -3.3755     7.2846     1.4980 H       
  50 H50            0.2404    -2.6326     0.3615 H       
  51 H51           -0.5050    -4.9767     0.3611 H       
  52 H52           -2.8804    -5.5168     0.0184 H       
  53 H53           -4.5232    -3.7182    -0.3251 H       
  54 H54           -3.7991    -1.3674    -0.3205 H       
  55 H55           -3.9222     3.2528     2.8210 H       
  56 H56           -4.1841     4.6033     3.9505 H       
  57 H57           -5.3309     4.3218     2.6186 H       
  58 H58            3.5960     3.1517    -0.0637 H       
  59 H59           -7.4934     5.0808    -3.3444 H       
  60 H60           -8.3536     6.6268    -3.5399 H       
  61 H61           -6.6295     6.6173    -3.0976 H       
  62 H62           -9.5714     5.3386    -0.2665 H       
  63 H63          -10.0716     5.8800    -1.8866 H       
  64 H64           -9.2114     4.3340    -1.6911 H       
  65 H65           -7.1348     8.0274    -1.0979 H       
  66 H66           -8.8589     8.0368    -1.5402 H       
  67 H67           -8.3587     7.4953     0.0800 H       
  68 H68            5.7849     1.9450     0.3682 H       
  69 H69            4.8983     0.3279     0.3435 H       
  70 H70            4.1461     0.7768    -2.0371 H       
  71 H71            5.0327     2.3938    -2.0124 H       
@<TRIPOS>BOND
   1    1    2 1
   2    1    6 1
   3    1    5 2
   4    2    3 1
   5    2    9 1
   6    3    4 2
   7    3   18 1
   8    4    5 1
   9    5   10 1
  10    6    7 1
  11    6   36 1
  12    6   37 1
  13    7    8 1
  14    7   30 1
  15    8    9 1
  16    8   38 1
  17    8   39 1
  18    9   40 1
  19    9   41 1
  20   10   11 2
  21   10   12 am
  22   12   13 1
  23   12   42 1
  24   13   14 1
  25   13   15 1
  26   13   43 1
  27   14   16 1
  28   14   17 1
  29   14   25 1
  30   15   24 2
  31   15   28 1
  32   16   44 1
  33   16   45 1
  34   16   46 1
  35   17   47 1
  36   17   48 1
  37   17   49 1
  38   18   19 ar
  39   18   23 ar
  40   19   20 ar
  41   19   50 1
  42   20   21 ar
  43   20   51 1
  44   21   22 ar
  45   21   52 1
  46   22   23 ar
  47   22   53 1
  48   23   54 1
  49   24   26 1
  50   25   55 1
  51   25   56 1
  52   25   57 1
  53   26   27 2
  54   26   29 1
  55   27   28 1
  56   29   31 1
  57   29   32 1
  58   29   33 1
  59   30   34 1
  60   30   35 1
  61   30   58 1
  62   31   59 1
  63   31   60 1
  64   31   61 1
  65   32   62 1
  66   32   63 1
  67   32   64 1
  68   33   65 1
  69   33   66 1
  70   33   67 1
  71   34   35 1
  72   34   68 1
  73   34   69 1
  74   35   70 1
  75   35   71 1

#	End of record

