#	Name: ASD03430758
#	Creating user name:	WinNT
#	Creation time:	15. 06. 2019 20:41

#	Modifying user name:	WinNT
#	Modification time:	15. 06. 2019 20:41

#	Program:	/corina/corina34_cracker 3.40 0067  02.08.2006

@<TRIPOS>MOLECULE
ASD03430758
  35   39    0    0    0
SMALL
NO_CHARGES


@<TRIPOS>ATOM
   1 C1            -0.0167     1.3822     0.0096 C.ar    
   2 C2             0.0021    -0.0041     0.0020 C.ar    
   3 C3             1.2027    -0.6819    -0.0150 C.ar    
   4 C4             2.4086     0.0128    -0.0150 C.ar    
   5 C5             2.3860     1.4038    -0.0118 C.ar    
   6 C6             1.1815     2.0867     0.0020 C.ar    
   7 O7             3.4713    -0.8420    -0.0044 O.3     
   8 C8             1.5510    -2.1459    -0.0478 C.3     
   9 C9             3.0367    -2.1464    -0.4338 C.3     
  10 C10            0.4282    -3.8603     1.0104 C.ar    
  11 C11            1.3149    -2.8188     1.2716 C.ar    
  12 C12            0.7179    -2.9079    -1.0381 C.2     
  13 N13            0.0993    -3.8860    -0.3470 N.am    
  14 O14            0.6205    -2.6864    -2.2266 O.2     
  15 C15            1.7795    -2.5979     2.5490 C.ar    
  16 C16            1.3671    -3.4139     3.5872 C.ar    
  17 C17            0.4873    -4.4519     3.3392 C.ar    
  18 C18            0.0187    -4.6771     2.0617 C.ar    
  19 O19            1.1867     3.4483     0.0117 O.3     
  20 C20           -0.0352     4.0989    -0.3535 C.3     
  21 O21           -1.2112     2.0356     0.0189 O.3     
  22 C22           -1.1862     3.4164     0.3979 C.3     
  23 H23           -0.9269    -0.5549     0.0098 H       
  24 H24            3.3147     1.9550    -0.0193 H       
  25 H25            3.1566    -2.2591    -1.5113 H       
  26 H26            3.5751    -2.9291     0.1007 H       
  27 H27           -0.5036    -4.5327    -0.7459 H       
  28 H28            2.4667    -1.7871     2.7404 H       
  29 H29            1.7315    -3.2411     4.5891 H       
  30 H30            0.1660    -5.0893     4.1496 H       
  31 H31           -0.6683    -5.4894     1.8759 H       
  32 H32            0.0118     5.1519    -0.0758 H       
  33 H33           -0.1929     4.0083    -1.4282 H       
  34 H34           -1.0262     3.4998     1.4729 H       
  35 H35           -2.1309     3.8888     0.1286 H       
@<TRIPOS>BOND
   1    1    2 ar
   2    1    6 ar
   3    1   21 1
   4    2    3 ar
   5    2   23 1
   6    3    4 ar
   7    3    8 1
   8    4    5 ar
   9    4    7 1
  10    5    6 ar
  11    5   24 1
  12    6   19 1
  13    7    9 1
  14    8    9 1
  15    8   11 1
  16    8   12 1
  17    9   25 1
  18    9   26 1
  19   10   11 ar
  20   10   13 1
  21   10   18 ar
  22   11   15 ar
  23   12   13 am
  24   12   14 2
  25   13   27 1
  26   15   16 ar
  27   15   28 1
  28   16   17 ar
  29   16   29 1
  30   17   18 ar
  31   17   30 1
  32   18   31 1
  33   19   20 1
  34   20   22 1
  35   20   32 1
  36   20   33 1
  37   21   22 1
  38   22   34 1
  39   22   35 1

#	End of record

