#	Name: ASD00061041
#	Creating user name:	WinNT
#	Creation time:	15. 06. 2019 18:29

#	Modifying user name:	WinNT
#	Modification time:	15. 06. 2019 18:29

#	Program:	/corina/corina34_cracker 3.40 0067  02.08.2006

@<TRIPOS>MOLECULE
ASD00061041
  51   54    0    0    0
SMALL
NO_CHARGES


@<TRIPOS>ATOM
   1 C1            -1.2041    -0.7632    -0.4419 C.ar    
   2 C2            -1.7139    -2.0866    -0.4555 C.ar    
   3 C3            -3.1017    -2.3009    -0.3575 C.ar    
   4 C4            -3.9464    -1.2451    -0.2505 C.ar    
   5 C5            -3.4538     0.0749    -0.2357 C.ar    
   6 C6            -2.0908     0.3180    -0.3360 C.ar    
   7 C7            -4.3903     1.2027    -0.1187 C.2     
   8 C8            -5.8715     0.9447    -0.0152 C.3     
   9 O9            -3.9707     2.3404    -0.1055 O.2     
  10 C10           -6.6027     2.2647     0.2371 C.3     
  11 C11           -8.0908     2.0282     0.2077 C.ar    
  12 C12           -8.6626     1.1402     1.1165 C.ar    
  13 C13          -10.0032     0.9037     1.1164 C.ar    
  14 C14          -10.8254     1.5634     0.1876 C.ar    
  15 C15          -10.2438     2.4672    -0.7366 C.ar    
  16 C16           -8.8568     2.6895    -0.7027 C.ar    
  17 C17            0.1841    -0.5575    -0.5409 C.ar    
  18 C18            1.0176    -1.6280    -0.6480 C.ar    
  19 C19            0.5162    -2.9281    -0.6613 C.ar    
  20 C20           -0.8214    -3.1653    -0.5675 C.ar    
  21 C21          -12.2134     1.3446     0.1566 C.ar    
  22 C22          -12.9784     2.0013    -0.7575 C.ar    
  23 C23          -12.4064     2.8900    -1.6662 C.ar    
  24 C24          -11.0663     3.1269    -1.6659 C.ar    
  25 C25           -6.2010     2.8166     1.6064 C.3     
  26 C26           -7.0014     4.0588     1.9018 C.2     
  27 O27           -7.6714     4.1214     2.9054 O.2     
  28 O28           -6.9700     5.0958     1.0501 O.3     
  29 C29           -6.4736     1.7797     2.6656 C.2     
  30 O30           -7.4826     1.8428     3.3273 O.2     
  31 O31           -5.5954     0.7861     2.8738 O.3     
  32 H32           -3.4943    -3.3070    -0.3679 H       
  33 H33           -5.0098    -1.4184    -0.1761 H       
  34 H34           -1.7159     1.3308    -0.3244 H       
  35 H35           -6.2292     0.5032    -0.9454 H       
  36 H36           -6.0641     0.2591     0.8100 H       
  37 H37           -6.3336     2.9830    -0.5373 H       
  38 H38           -8.0328     0.6318     1.8315 H       
  39 H39          -10.4324     0.2122     1.8263 H       
  40 H40           -8.3998     3.3753    -1.4007 H       
  41 H41            0.5863     0.4448    -0.5322 H       
  42 H42            2.0829    -1.4676    -0.7242 H       
  43 H43            1.1990    -3.7605    -0.7476 H       
  44 H44           -1.1945    -4.1787    -0.5792 H       
  45 H45          -12.6705     0.6585     0.8544 H       
  46 H46          -14.0446     1.8310    -0.7794 H       
  47 H47          -13.0362     3.3982    -2.3813 H       
  48 H48          -10.6372     3.8185    -2.3757 H       
  49 H49           -5.1388     3.0612     1.6022 H       
  50 H50           -7.5565     5.8401     1.2428 H       
  51 H51           -5.8136     0.1449     3.5639 H       
@<TRIPOS>BOND
   1    1    2 ar
   2    1   17 ar
   3    1    6 ar
   4    2    3 ar
   5    2   20 ar
   6    3    4 ar
   7    3   32 1
   8    4    5 ar
   9    4   33 1
  10    5    6 ar
  11    5    7 1
  12    6   34 1
  13    7    8 1
  14    7    9 2
  15    8   10 1
  16    8   35 1
  17    8   36 1
  18   10   11 1
  19   10   25 1
  20   10   37 1
  21   11   12 ar
  22   11   16 ar
  23   12   13 ar
  24   12   38 1
  25   13   14 ar
  26   13   39 1
  27   14   15 ar
  28   14   21 ar
  29   15   16 ar
  30   15   24 ar
  31   16   40 1
  32   17   18 ar
  33   17   41 1
  34   18   19 ar
  35   18   42 1
  36   19   20 ar
  37   19   43 1
  38   20   44 1
  39   21   22 ar
  40   21   45 1
  41   22   23 ar
  42   22   46 1
  43   23   24 ar
  44   23   47 1
  45   24   48 1
  46   25   26 1
  47   25   29 1
  48   25   49 1
  49   26   27 2
  50   26   28 1
  51   28   50 1
  52   29   30 2
  53   29   31 1
  54   31   51 1

#	End of record

