#	Name: ASD05720051
#	Creating user name:	WinNT
#	Creation time:	15. 06. 2019 21:01

#	Modifying user name:	WinNT
#	Modification time:	15. 06. 2019 21:01

#	Program:	/corina/corina34_cracker 3.40 0067  02.08.2006

@<TRIPOS>MOLECULE
ASD05720051
  52   57    0    0    0
SMALL
NO_CHARGES


@<TRIPOS>ATOM
   1 O1            -0.0610     2.3140     0.9085 O.3     
   2 C2             0.3937     1.2018     0.3207 C.2     
   3 N3             0.0390     0.0727     0.9493 N.am    
   4 C4            -0.7673     0.4184     2.1299 C.3     
   5 C5            -0.8303     1.9576     2.0934 C.3     
   6 O6             1.0663     1.2141    -0.6910 O.2     
   7 C7            -0.0794    -0.0611     3.4097 C.3     
   8 C8            -0.0383    -1.5675     3.4237 C.ar    
   9 C9             1.1208    -2.2306     3.0663 C.ar    
  10 C10            1.1585    -3.6124     3.0791 C.ar    
  11 C11            0.0373    -4.3310     3.4497 C.ar    
  12 C12           -1.1215    -3.6679     3.8080 C.ar    
  13 C13           -1.1579    -2.2860     3.7993 C.ar    
  14 C14            1.8458    -2.6598    -0.4904 C.2     
  15 N15            1.5055    -1.4278    -0.0992 N.2     
  16 C16            0.3770    -1.2139     0.5507 C.2     
  17 C17           -0.4853    -2.2907     0.8410 C.2     
  18 C18           -0.1438    -3.5386     0.4470 C.2     
  19 N19            1.0316    -3.7288    -0.2250 N.pl3   
  20 N20            1.6410    -4.8746    -0.7485 N.2     
  21 C21            2.7763    -4.5419    -1.3120 C.2     
  22 C22            2.9556    -3.1590    -1.1854 C.2     
  23 C23            4.1033    -2.3721    -1.6894 C.ar    
  24 C24            5.4079    -2.7736    -1.3962 C.ar    
  25 C25            6.4752    -2.0410    -1.8654 C.ar    
  26 C26            6.2533    -0.8980    -2.6334 C.ar    
  27 C27            4.9501    -0.4963    -2.9267 C.ar    
  28 C28            3.8820    -1.2312    -2.4630 C.ar    
  29 N29            8.6412     1.3972    -4.1193 N.pl3   
  30 N30            7.3234     0.9818    -3.8685 N.2     
  31 C31            7.4033    -0.1092    -3.1380 C.2     
  32 N32            8.6964    -0.3892    -2.9247 N.2     
  33 C33            9.4453     0.5082    -3.5091 C.2     
  34 H34           -1.7673    -0.0077     2.0488 H       
  35 H35           -0.3723     2.3801     2.9877 H       
  36 H36           -1.8619     2.2956     1.9952 H       
  37 H37            0.9372     0.3304     3.4443 H       
  38 H38           -0.6357     0.2952     4.2766 H       
  39 H39            1.9968    -1.6692     2.7768 H       
  40 H40            2.0638    -4.1305     2.7992 H       
  41 H41            0.0666    -5.4106     3.4590 H       
  42 H42           -1.9976    -4.2294     4.0972 H       
  43 H43           -2.0621    -1.7679     4.0828 H       
  44 H44           -1.4095    -2.1209     1.3732 H       
  45 H45           -0.7921    -4.3755     0.6611 H       
  46 H46            3.4600    -5.2224    -1.7977 H       
  47 H47            5.5799    -3.6584    -0.8013 H       
  48 H48            7.4845    -2.3513    -1.6384 H       
  49 H49            4.7790     0.3888    -3.5214 H       
  50 H50            2.8731    -0.9228    -2.6942 H       
  51 H51            8.9175     2.1709    -4.6350 H       
  52 H52           10.5251     0.5318    -3.5033 H       
@<TRIPOS>BOND
   1    1    2 1
   2    1    5 1
   3    2    3 am
   4    2    6 2
   5    3    4 1
   6    3   16 1
   7    4    5 1
   8    4    7 1
   9    4   34 1
  10    5   35 1
  11    5   36 1
  12    7    8 1
  13    7   37 1
  14    7   38 1
  15    8    9 ar
  16    8   13 ar
  17    9   10 ar
  18    9   39 1
  19   10   11 ar
  20   10   40 1
  21   11   12 ar
  22   11   41 1
  23   12   13 ar
  24   12   42 1
  25   13   43 1
  26   14   15 1
  27   14   19 1
  28   14   22 2
  29   15   16 2
  30   16   17 1
  31   17   18 2
  32   17   44 1
  33   18   19 1
  34   18   45 1
  35   19   20 1
  36   20   21 2
  37   21   22 1
  38   21   46 1
  39   22   23 1
  40   23   24 ar
  41   23   28 ar
  42   24   25 ar
  43   24   47 1
  44   25   26 ar
  45   25   48 1
  46   26   27 ar
  47   26   31 1
  48   27   28 ar
  49   27   49 1
  50   28   50 1
  51   29   30 1
  52   29   33 1
  53   29   51 1
  54   30   31 2
  55   31   32 1
  56   32   33 2
  57   33   52 1

#	End of record

