#	Name: ASD01820082
#	Creating user name:	WinNT
#	Creation time:	15. 06. 2019 19:36

#	Modifying user name:	WinNT
#	Modification time:	15. 06. 2019 19:36

#	Program:	/corina/corina34_cracker 3.40 0067  02.08.2006

@<TRIPOS>MOLECULE
ASD01820082
 134  142    0    0    0
SMALL
NO_CHARGES


@<TRIPOS>ATOM
   1 C1            -0.0166     1.3765     0.0096 C.ar    
   2 C2             0.0021    -0.0041     0.0020 C.ar    
   3 C3             1.2059    -0.6838    -0.0135 C.ar    
   4 C4             2.3956     0.0197    -0.0069 C.ar    
   5 C5             2.3845     1.4067     0.0159 C.ar    
   6 C6             1.1748     2.0954     0.0021 C.ar    
   7 N7             3.6001     2.1025     0.0986 N.am    
   8 C8             3.8404     2.9139     1.2055 C.ar    
   9 C9             3.0004     3.9974     1.4851 C.ar    
  10 C10            1.9012     4.3454     0.5751 C.2     
  11 N11            1.1237     3.4843    -0.0609 N.am    
  12 C12            4.9158     2.6411     2.0407 C.ar    
  13 C13            5.1376     3.4196     3.1593 C.ar    
  14 C14            4.2899     4.4738     3.4571 C.ar    
  15 C15            3.2265     4.7665     2.6306 C.ar    
  16 O16            1.6867     5.5278     0.3909 O.2     
  17 C17            4.5218     1.9873    -0.8780 C.2     
  18 O18            4.3034     1.2781    -1.8374 O.2     
  19 C19            5.8237     2.7397    -0.7779 C.3     
  20 N20            6.6496     2.4482    -1.9572 N.3     
  21 C21            7.8164     3.3380    -2.0155 C.3     
  22 C22            8.5715     3.1060    -3.3262 C.3     
  23 C23            9.0176     1.6432    -3.4005 C.3     
  24 C24            7.7886     0.7367    -3.2890 C.3     
  25 C25            7.0562     1.0374    -1.9794 C.3     
  26 C26            9.7202     1.3901    -4.7359 C.3     
  27 C27           10.2748    -0.0357    -4.7582 C.3     
  28 C28           10.9773    -0.2888    -6.0936 C.3     
  29 C29           11.5319    -1.7146    -6.1159 C.3     
  30 C30           12.2345    -1.9677    -7.4513 C.3     
  31 N31           12.7669    -3.3366    -7.4727 N.3     
  32 C32           13.2378    -3.6976    -8.8172 C.3     
  33 C33           13.8559    -5.0972    -8.7797 C.3     
  34 N34           12.8543    -6.0595    -8.2996 N.3     
  35 C35           12.3834    -5.6985    -6.9552 C.3     
  36 C36           11.7653    -4.2989    -6.9927 C.3     
  37 C37           13.3867    -7.4284    -8.3211 C.3     
  38 C38           12.4211    -8.3628    -7.5894 C.3     
  39 C39           12.9757    -9.7885    -7.6117 C.3     
  40 C40           12.0100   -10.7229    -6.8801 C.3     
  41 C41           12.5646   -12.1487    -6.9024 C.3     
  42 C42           10.7385   -16.8571     2.6798 C.ar    
  43 C43           10.3228   -15.6386     3.1787 C.ar    
  44 C44            9.8184   -14.6732     2.3272 C.ar    
  45 C45            9.7163   -14.9326     0.9735 C.ar    
  46 C46           10.1176   -16.1603     0.4673 C.ar    
  47 C47           10.6531   -17.1243     1.3168 C.ar    
  48 N48            9.9362   -16.4337    -0.8969 N.am    
  49 C49            9.1039   -17.4869    -1.2702 C.ar    
  50 C50            9.3932   -18.7952    -0.8675 C.ar    
  51 C51           10.6185   -19.0917    -0.1138 C.2     
  52 N52           11.1440   -18.3336     0.8349 N.am    
  53 C53            7.9760   -17.2355    -2.0405 C.ar    
  54 C54            7.1278   -18.2698    -2.3829 C.ar    
  55 C55            7.3936   -19.5617    -1.9596 C.ar    
  56 C56            8.5163   -19.8301    -1.2067 C.ar    
  57 O57           11.2006   -20.1241    -0.3851 O.2     
  58 C58           10.5576   -15.6884    -1.8323 C.2     
  59 O59           11.2799   -14.7734    -1.4973 O.2     
  60 C60           10.3549   -15.9919    -3.2944 C.3     
  61 N61           11.1338   -15.0451    -4.1036 N.3     
  62 C62           11.1531   -15.4505    -5.5149 C.3     
  63 C63           12.0888   -14.5280    -6.2993 C.3     
  64 C64           11.5989   -13.0830    -6.1707 C.3     
  65 C65           11.5419   -12.7017    -4.6889 C.3     
  66 C66           10.6220   -13.6771    -3.9511 C.3     
  67 H67           -0.9607     1.9010     0.0169 H       
  68 H68           -0.9269    -0.5549     0.0086 H       
  69 H69            1.2167    -1.7636    -0.0305 H       
  70 H70            3.3358    -0.5116    -0.0190 H       
  71 H71            0.4415     3.8641    -0.6366 H       
  72 H72            5.5791     1.8192     1.8152 H       
  73 H73            5.9760     3.2052     3.8055 H       
  74 H74            4.4629     5.0692     4.3414 H       
  75 H75            2.5681     5.5891     2.8679 H       
  76 H76            5.6222     3.8098    -0.7308 H       
  77 H77            6.3540     2.4299     0.1226 H       
  78 H78            7.4849     4.3752    -1.9660 H       
  79 H79            8.4762     3.1272    -1.1739 H       
  80 H80            7.9165     3.3299    -4.1681 H       
  81 H81            9.4462     3.7555    -3.3621 H       
  82 H82            9.7035     1.4294    -2.5808 H       
  83 H83            7.1213     0.9233    -4.1304 H       
  84 H84            8.1040    -0.3067    -3.2983 H       
  85 H85            7.7196     0.8373    -1.1380 H       
  86 H86            6.1726     0.4036    -1.9036 H       
  87 H87            9.0074     1.5155    -5.5509 H       
  88 H88           10.5384     2.1001    -4.8563 H       
  89 H89           10.9876    -0.1611    -3.9432 H       
  90 H90            9.4566    -0.7458    -4.6378 H       
  91 H91           10.2645    -0.1634    -6.9086 H       
  92 H92           11.7955     0.4212    -6.2140 H       
  93 H93           12.2447    -1.8400    -5.3009 H       
  94 H94           10.7137    -2.4246    -5.9955 H       
  95 H95           11.5217    -1.8423    -8.2664 H       
  96 H96           13.0527    -1.2577    -7.5717 H       
  97 H97           12.3973    -3.6897    -9.5112 H       
  98 H98           13.9876    -2.9776    -9.1454 H       
  99 H99           14.1797    -5.3788    -9.7817 H       
 100 H100          14.7131    -5.0983    -8.1064 H       
 101 H101          11.6337    -6.4185    -6.6270 H       
 102 H102          13.2239    -5.7064    -6.2612 H       
 103 H103          11.4415    -4.0174    -5.9907 H       
 104 H104          10.9081    -4.2978    -7.6659 H       
 105 H105          13.4992    -7.7584    -9.3538 H       
 106 H106          14.3574    -7.4485    -7.8255 H       
 107 H107          12.3086    -8.0328    -6.5567 H       
 108 H108          11.4505    -8.3427    -8.0850 H       
 109 H109          13.0881   -10.1185    -8.6445 H       
 110 H110          13.9463    -9.8087    -7.1161 H       
 111 H111          11.8975   -10.3929    -5.8473 H       
 112 H112          11.0394   -10.7028    -7.3757 H       
 113 H113          12.6770   -12.4787    -7.9351 H       
 114 H114          13.5352   -12.1688    -6.4068 H       
 115 H115          11.1359   -17.6048     3.3501 H       
 116 H116          10.3917   -15.4390     4.2379 H       
 117 H117           9.5045   -13.7172     2.7195 H       
 118 H118           9.3223   -14.1783     0.3085 H       
 119 H119          11.9640   -18.6572     1.2397 H       
 120 H120           7.7620   -16.2301    -2.3717 H       
 121 H121           6.2525   -18.0705    -2.9833 H       
 122 H122           6.7176   -20.3625    -2.2207 H       
 123 H123           8.7184   -20.8390    -0.8786 H       
 124 H124          10.6876   -17.0085    -3.5040 H       
 125 H125           9.2976   -15.8973    -3.5420 H       
 126 H126          11.5073   -16.4784    -5.5926 H       
 127 H127          10.1461   -15.3815    -5.9263 H       
 128 H128          13.0989   -14.6070    -5.8972 H       
 129 H129          12.0908   -14.8195    -7.3496 H       
 130 H130          10.6043   -12.9954    -6.6079 H       
 131 H131          12.5434   -12.7519    -4.2614 H       
 132 H132          11.1532   -11.6883    -4.5886 H       
 133 H133           9.6175   -13.6164    -4.3699 H       
 134 H134          10.5906   -13.4170    -2.8931 H       
@<TRIPOS>BOND
   1    1    2 ar
   2    1    6 ar
   3    1   67 1
   4    2    3 ar
   5    2   68 1
   6    3    4 ar
   7    3   69 1
   8    4    5 ar
   9    4   70 1
  10    5    6 ar
  11    5    7 1
  12    6   11 1
  13    7    8 1
  14    7   17 am
  15    8    9 ar
  16    8   12 ar
  17    9   10 1
  18    9   15 ar
  19   10   11 am
  20   10   16 2
  21   11   71 1
  22   12   13 ar
  23   12   72 1
  24   13   14 ar
  25   13   73 1
  26   14   15 ar
  27   14   74 1
  28   15   75 1
  29   17   18 2
  30   17   19 1
  31   19   20 1
  32   19   76 1
  33   19   77 1
  34   20   21 1
  35   20   25 1
  36   21   22 1
  37   21   78 1
  38   21   79 1
  39   22   23 1
  40   22   80 1
  41   22   81 1
  42   23   24 1
  43   23   26 1
  44   23   82 1
  45   24   25 1
  46   24   83 1
  47   24   84 1
  48   25   85 1
  49   25   86 1
  50   26   27 1
  51   26   87 1
  52   26   88 1
  53   27   28 1
  54   27   89 1
  55   27   90 1
  56   28   29 1
  57   28   91 1
  58   28   92 1
  59   29   30 1
  60   29   93 1
  61   29   94 1
  62   30   31 1
  63   30   95 1
  64   30   96 1
  65   31   32 1
  66   31   36 1
  67   32   33 1
  68   32   97 1
  69   32   98 1
  70   33   34 1
  71   33   99 1
  72   33  100 1
  73   34   35 1
  74   34   37 1
  75   35   36 1
  76   35  101 1
  77   35  102 1
  78   36  103 1
  79   36  104 1
  80   37   38 1
  81   37  105 1
  82   37  106 1
  83   38   39 1
  84   38  107 1
  85   38  108 1
  86   39   40 1
  87   39  109 1
  88   39  110 1
  89   40   41 1
  90   40  111 1
  91   40  112 1
  92   41   64 1
  93   41  113 1
  94   41  114 1
  95   42   43 ar
  96   42   47 ar
  97   42  115 1
  98   43   44 ar
  99   43  116 1
 100   44   45 ar
 101   44  117 1
 102   45   46 ar
 103   45  118 1
 104   46   47 ar
 105   46   48 1
 106   47   52 1
 107   48   49 1
 108   48   58 am
 109   49   50 ar
 110   49   53 ar
 111   50   51 1
 112   50   56 ar
 113   51   52 am
 114   51   57 2
 115   52  119 1
 116   53   54 ar
 117   53  120 1
 118   54   55 ar
 119   54  121 1
 120   55   56 ar
 121   55  122 1
 122   56  123 1
 123   58   59 2
 124   58   60 1
 125   60   61 1
 126   60  124 1
 127   60  125 1
 128   61   62 1
 129   61   66 1
 130   62   63 1
 131   62  126 1
 132   62  127 1
 133   63   64 1
 134   63  128 1
 135   63  129 1
 136   64   65 1
 137   64  130 1
 138   65   66 1
 139   65  131 1
 140   65  132 1
 141   66  133 1
 142   66  134 1

#	End of record

