#	Name: ASD01813510
#	Creating user name:	WinNT
#	Creation time:	15. 06. 2019 19:30

#	Modifying user name:	WinNT
#	Modification time:	15. 06. 2019 19:30

#	Program:	/corina/corina34_cracker 3.40 0067  02.08.2006

@<TRIPOS>MOLECULE
ASD01813510
  44   47    0    0    0
SMALL
NO_CHARGES


@<TRIPOS>ATOM
   1 C1            -0.0168     1.3834    -0.0464 C.ar    
   2 C2             0.0020    -0.0038    -0.0535 C.ar    
   3 C3             1.1976    -0.6920    -0.0501 C.ar    
   4 C4             2.4035     0.0084    -0.0395 C.ar    
   5 C5             2.3796     1.4130    -0.0324 C.ar    
   6 C6             1.1627     2.0947    -0.0359 C.ar    
   7 N7             3.6056    -0.6668    -0.0350 N.pl3   
   8 C8             4.7891    -0.0410    -0.0235 C.2     
   9 C9             4.8932     1.3356    -0.0153 C.2     
  10 C10            3.6619     2.1417    -0.0212 C.2     
  11 O11            3.7002     3.3596    -0.0146 O.2     
  12 C12            6.2115     1.9851    -0.0017 C.2     
  13 O13            6.3001     3.3303     0.0063 O.3     
  14 O14            7.2221     1.3094     0.0024 O.2     
  15 C15            3.5871    -2.1316    -0.0427 C.3     
  16 C16            3.4445    -2.6248    -1.4595 C.ar    
  17 N17            2.2427    -2.7288    -1.9928 N.ar    
  18 C18            2.0638    -3.1544    -3.2266 C.ar    
  19 C19            3.1535    -3.5129    -4.0180 C.ar    
  20 C20            4.4408    -3.4137    -3.4812 C.ar    
  21 C21            4.5766    -2.9559    -2.1822 C.ar    
  22 C22            2.9510    -3.9922    -5.4065 C.ar    
  23 F23            1.2003    -2.0430    -0.0566 F       
  24 C24            1.6613    -4.0870    -5.9299 C.ar    
  25 C25            1.4720    -4.5314    -7.2189 C.ar    
  26 C26            2.5724    -4.8878    -8.0034 C.ar    
  27 C27            3.8639    -4.7923    -7.4777 C.ar    
  28 C28            4.0507    -4.3425    -6.1902 C.ar    
  29 C29            2.3769    -5.3507    -9.3443 C.1     
  30 N30            2.2217    -5.7179   -10.4080 N.1     
  31 H31           -0.9608     1.9082    -0.0537 H       
  32 H32           -0.9293    -0.5507    -0.0613 H       
  33 H33            1.1454     3.1745    -0.0307 H       
  34 H34            5.6925    -0.6328    -0.0202 H       
  35 H35            7.1887     3.7117     0.0151 H       
  36 H36            4.5175    -2.5090     0.3815 H       
  37 H37            2.7459    -2.4875     0.5522 H       
  38 H38            1.0639    -3.2264    -3.6283 H       
  39 H39            5.3073    -3.6836    -4.0666 H       
  40 H40            5.5554    -2.8659    -1.7347 H       
  41 H41            0.8111    -3.8120    -5.3234 H       
  42 H42            0.4734    -4.6051    -7.6238 H       
  43 H43            4.7151    -5.0673    -8.0828 H       
  44 H44            5.0486    -4.2683    -5.7838 H       
@<TRIPOS>BOND
   1    1    2 ar
   2    1    6 ar
   3    1   31 1
   4    2    3 ar
   5    2   32 1
   6    3    4 ar
   7    3   23 1
   8    4    5 ar
   9    4    7 1
  10    5    6 ar
  11    5   10 1
  12    6   33 1
  13    7    8 1
  14    7   15 1
  15    8    9 2
  16    8   34 1
  17    9   10 1
  18    9   12 1
  19   10   11 2
  20   12   13 1
  21   12   14 2
  22   13   35 1
  23   15   16 1
  24   15   36 1
  25   15   37 1
  26   16   17 ar
  27   16   21 ar
  28   17   18 ar
  29   18   19 ar
  30   18   38 1
  31   19   20 ar
  32   19   22 1
  33   20   21 ar
  34   20   39 1
  35   21   40 1
  36   22   24 ar
  37   22   28 ar
  38   24   25 ar
  39   24   41 1
  40   25   26 ar
  41   25   42 1
  42   26   27 ar
  43   26   29 1
  44   27   28 ar
  45   27   43 1
  46   28   44 1
  47   29   30 3

#	End of record

