#	Name: ASD01140519
#	Creating user name:	WinNT
#	Creation time:	15. 06. 2019 19:01

#	Modifying user name:	WinNT
#	Modification time:	15. 06. 2019 19:01

#	Program:	/corina/corina34_cracker 3.40 0067  02.08.2006

@<TRIPOS>MOLECULE
ASD01140519
  41   43    0    0    0
SMALL
NO_CHARGES


@<TRIPOS>ATOM
   1 C1            -0.0185     1.5128     0.0104 C.3     
   2 C2             0.0021    -0.0041     0.0020 C.2     
   3 N3             1.2075    -0.6116    -0.0128 N.am    
   4 C4             2.3508     0.0831    -0.0195 C.2     
   5 N5             2.4325     1.4185    -0.0126 N.am    
   6 C6             1.3330     2.2017     0.0012 C.2     
   7 C7            -0.7901     1.9779    -1.1976 C.ar    
   8 C8            -0.3596     1.6369    -2.4664 C.ar    
   9 C9            -1.0673     2.0635    -3.5743 C.ar    
  10 C10           -2.2060     2.8310    -3.4137 C.ar    
  11 C11           -2.6369     3.1712    -2.1454 C.ar    
  12 C12           -1.9315     2.7408    -1.0370 C.ar    
  13 C13           -0.5974     1.6926    -4.9573 C.3     
  14 N14           -1.5284     1.0005    -5.8519 N.2     
  15 C15            0.4740     2.5955    -5.5719 C.3     
  16 N16           -0.6438     0.2846    -5.3593 N.2     
  17 C17           -0.7783     1.9718     1.2565 C.3     
  18 C18           -0.0702     1.4477     2.5075 C.3     
  19 C19           -0.8300     1.9066     3.7536 C.3     
  20 O20           -1.0258    -0.6468     0.0088 O.2     
  21 O21            1.4225     3.4107     0.0064 O.2     
  22 O22            3.3910    -0.5445    -0.0324 O.2     
  23 C23            3.7545     2.0497    -0.0204 C.3     
  24 F24            1.6142     2.5844    -4.7613 F       
  25 F25            0.8042     2.1255    -6.8476 F       
  26 F26           -0.0166     3.9020    -5.6688 F       
  27 H27            1.2458    -1.5809    -0.0183 H       
  28 H28            0.5300     1.0374    -2.5918 H       
  29 H29           -2.7586     3.1650    -4.2795 H       
  30 H30           -3.5263     3.7710    -2.0200 H       
  31 H31           -2.2703     3.0035    -0.0457 H       
  32 H32           -0.8063     3.0610     1.2843 H       
  33 H33           -1.7961     1.5828     1.2253 H       
  34 H34           -0.0422     0.3584     2.4796 H       
  35 H35            0.9476     1.8366     2.5387 H       
  36 H36           -1.8478     1.5177     3.7224 H       
  37 H37           -0.3256     1.5333     4.6448 H       
  38 H38           -0.8580     2.9959     3.7814 H       
  39 H39            4.5251     1.2788    -0.0314 H       
  40 H40            3.8534     2.6749    -0.9077 H       
  41 H41            3.8687     2.6648     0.8721 H       
@<TRIPOS>BOND
   1    1    2 1
   2    1    6 1
   3    1    7 1
   4    1   17 1
   5    2    3 am
   6    2   20 2
   7    3    4 am
   8    3   27 1
   9    4    5 am
  10    4   22 2
  11    5    6 am
  12    5   23 1
  13    6   21 2
  14    7    8 ar
  15    7   12 ar
  16    8    9 ar
  17    8   28 1
  18    9   10 ar
  19    9   13 1
  20   10   11 ar
  21   10   29 1
  22   11   12 ar
  23   11   30 1
  24   12   31 1
  25   13   14 1
  26   13   15 1
  27   13   16 1
  28   14   16 2
  29   15   24 1
  30   15   25 1
  31   15   26 1
  32   17   18 1
  33   17   32 1
  34   17   33 1
  35   18   19 1
  36   18   34 1
  37   18   35 1
  38   19   36 1
  39   19   37 1
  40   19   38 1
  41   23   39 1
  42   23   40 1
  43   23   41 1

#	End of record

