#	Name: ASD03540102
#	Creating user name:	WinNT
#	Creation time:	15. 06. 2019 20:42

#	Modifying user name:	WinNT
#	Modification time:	15. 06. 2019 20:42

#	Program:	/corina/corina34_cracker 3.40 0067  02.08.2006

@<TRIPOS>MOLECULE
ASD03540102
  54   56    0    0    0
SMALL
NO_CHARGES


@<TRIPOS>ATOM
   1 C1            -0.0179     1.4709     0.0101 C.2     
   2 C2             0.0021    -0.0041     0.0020 C.ar    
   3 C3             1.2183    -0.6844    -0.0132 C.ar    
   4 C4             1.2312    -2.0772    -0.0204 C.ar    
   5 C5             2.5132    -2.8053    -0.0360 C.2     
   6 C6             0.0183    -2.7856    -0.0121 C.ar    
   7 C7            -1.1880    -2.0968     0.0031 C.ar    
   8 C8            -1.2006    -0.7205     0.0155 C.ar    
   9 O9             1.0259     2.0926     0.0035 O.2     
  10 O10           -1.1938     2.1287     0.0193 O.3     
  11 O11            2.5219    -4.0203    -0.0423 O.2     
  12 O12            3.6753    -2.1233    -0.0435 O.3     
  13 O13            0.0249    -4.1401    -0.0195 O.3     
  14 C14           -1.2451    -4.7951    -0.0104 C.3     
  15 C15           -1.0404    -6.2881    -0.0204 C.2     
  16 O16            0.0783    -6.7444    -0.0340 O.2     
  17 O17           -2.1009    -7.1110    -0.0143 O.3     
  18 C18           -1.8286    -8.5372    -0.0247 C.3     
  19 C19           -1.1375     3.5795     0.0269 C.3     
  20 C20           -2.5378     4.1366     0.0366 C.ar    
  21 C21           -3.1743     4.3855     1.2381 C.ar    
  22 C22           -4.4587     4.8964     1.2470 C.ar    
  23 C23           -5.1065     5.1588     0.0543 C.ar    
  24 C24           -4.4696     4.9107    -1.1472 C.ar    
  25 C25           -3.1835     4.4038    -1.1561 C.ar    
  26 C26            4.8986    -2.9054    -0.0589 C.3     
  27 C27            6.0871    -1.9789    -0.0653 C.ar    
  28 C28            6.6434    -1.5600     1.1288 C.ar    
  29 C29            7.7336    -0.7101     1.1229 C.ar    
  30 C30            8.2678    -0.2795    -0.0771 C.ar    
  31 C31            7.7120    -0.6991    -1.2713 C.ar    
  32 C32            6.6245    -1.5524    -1.2654 C.ar    
  33 H33            2.1473    -0.1337    -0.0199 H       
  34 H34           -2.1195    -2.6434     0.0090 H       
  35 H35           -2.1419    -0.1912     0.0315 H       
  36 H36           -1.7947    -4.5098     0.8866 H       
  37 H37           -1.8123    -4.5002    -0.8932 H       
  38 H38           -1.2646    -8.7929    -0.9217 H       
  39 H39           -1.2470    -8.8025     0.8582 H       
  40 H40           -2.7699    -9.0868    -0.0183 H       
  41 H41           -0.6058     3.9178     0.9162 H       
  42 H42           -0.6142     3.9275    -0.8637 H       
  43 H43           -2.6682     4.1805     2.1699 H       
  44 H44           -4.9563     5.0903     2.1857 H       
  45 H45           -6.1102     5.5573     0.0612 H       
  46 H46           -4.9758     5.1153    -2.0791 H       
  47 H47           -2.6846     4.2134    -2.0948 H       
  48 H48            4.9362    -3.5385     0.8276 H       
  49 H49            4.9196    -3.5295    -0.9522 H       
  50 H50            6.2261    -1.8965     2.0664 H       
  51 H51            8.1678    -0.3823     2.0559 H       
  52 H52            9.1191     0.3851    -0.0818 H       
  53 H53            8.1292    -0.3624    -2.2088 H       
  54 H54            6.1926    -1.8832    -2.1984 H       
@<TRIPOS>BOND
   1    1    2 1
   2    1    9 2
   3    1   10 1
   4    2    3 ar
   5    2    8 ar
   6    3    4 ar
   7    3   33 1
   8    4    5 1
   9    4    6 ar
  10    5   11 2
  11    5   12 1
  12    6    7 ar
  13    6   13 1
  14    7    8 ar
  15    7   34 1
  16    8   35 1
  17   10   19 1
  18   12   26 1
  19   13   14 1
  20   14   15 1
  21   14   36 1
  22   14   37 1
  23   15   16 2
  24   15   17 1
  25   17   18 1
  26   18   38 1
  27   18   39 1
  28   18   40 1
  29   19   20 1
  30   19   41 1
  31   19   42 1
  32   20   21 ar
  33   20   25 ar
  34   21   22 ar
  35   21   43 1
  36   22   23 ar
  37   22   44 1
  38   23   24 ar
  39   23   45 1
  40   24   25 ar
  41   24   46 1
  42   25   47 1
  43   26   27 1
  44   26   48 1
  45   26   49 1
  46   27   28 ar
  47   27   32 ar
  48   28   29 ar
  49   28   50 1
  50   29   30 ar
  51   29   51 1
  52   30   31 ar
  53   30   52 1
  54   31   32 ar
  55   31   53 1
  56   32   54 1

#	End of record

