#	Name: ASD01915785
#	Creating user name:	WinNT
#	Creation time:	15. 06. 2019 20:06

#	Modifying user name:	WinNT
#	Modification time:	15. 06. 2019 20:06

#	Program:	/corina/corina34_cracker 3.40 0067  02.08.2006

@<TRIPOS>MOLECULE
ASD01915785
  48   51    0    0    0
SMALL
NO_CHARGES


@<TRIPOS>ATOM
   1 C1            -0.0043     1.4636     0.2195 C.2     
   2 N2             0.0620     0.1108    -0.0289 N.pl3   
   3 C3            -1.1503    -0.6732    -0.2945 C.3     
   4 C4            -2.3297    -0.0465     0.4473 C.3     
   5 N5            -2.4043     1.3988     0.2637 N.am    
   6 C6            -1.2918     2.1723     0.2697 C.2     
   7 C7             1.2783     1.9008     0.3972 C.2     
   8 C8             2.0747     0.7566     0.2546 C.2     
   9 N9             1.2818    -0.2605     0.0093 N.2     
  10 C10            3.5768     0.7032     0.3628 C.3     
  11 O11            4.0814     2.0118     0.6369 O.3     
  12 C12            5.4283     2.1393     0.7654 C.ar    
  13 O13           -1.3546     3.3861     0.3147 O.2     
  14 C14            5.9864     3.3811     1.0317 C.ar    
  15 C15            6.2470     1.0268     0.6360 C.ar    
  16 C16            7.6159     1.1590     0.7669 C.ar    
  17 C17            8.1701     2.3988     1.0268 C.ar    
  18 C18            7.3558     3.5081     1.1618 C.ar    
  19 C19           -3.6481     1.9976     0.0778 C.ar    
  20 N20           -3.7152     3.2593    -0.3192 N.ar    
  21 C21           -4.8053     1.2633     0.3054 C.ar    
  22 C22           -6.0383     1.8670     0.1180 C.ar    
  23 C23           -6.0731     3.1896    -0.2922 C.ar    
  24 C24           -4.8778     3.8655    -0.5076 C.ar    
  25 N25           -4.9027     5.1929    -0.9193 N.pl3   
  26 C26           -6.1790     5.9052    -1.0185 C.3     
  27 C27           -3.6526     5.8795    -1.2541 C.3     
  28 H28           -1.3541    -0.6764    -1.3653 H       
  29 H29           -1.0049    -1.6965     0.0518 H       
  30 H30           -3.2536    -0.4959     0.0833 H       
  31 H31           -2.2311    -0.2617     1.5113 H       
  32 H32            1.6067     2.9089     0.6026 H       
  33 H33            3.8592     0.0283     1.1708 H       
  34 H34            3.9961     0.3415    -0.5761 H       
  35 H35            5.3509     4.2480     1.1370 H       
  36 H36            5.8145     0.0581     0.4334 H       
  37 H37            8.2536     0.2932     0.6666 H       
  38 H38            9.2405     2.5001     1.1288 H       
  39 H39            7.7912     4.4755     1.3644 H       
  40 H40           -4.7445     0.2333     0.6245 H       
  41 H41           -6.9527     1.3179     0.2879 H       
  42 H42           -7.0183     3.6885    -0.4474 H       
  43 H43           -6.4013     6.3867    -0.0662 H       
  44 H44           -6.1134     6.6610    -1.8012 H       
  45 H45           -6.9719     5.1980    -1.2619 H       
  46 H46           -2.8151     5.1947    -1.1212 H       
  47 H47           -3.6880     6.2134    -2.2911 H       
  48 H48           -3.5248     6.7413    -0.5991 H       
@<TRIPOS>BOND
   1    1    2 1
   2    1    7 2
   3    1    6 1
   4    2    3 1
   5    2    9 1
   6    3    4 1
   7    3   28 1
   8    3   29 1
   9    4    5 1
  10    4   30 1
  11    4   31 1
  12    5    6 am
  13    5   19 1
  14    6   13 2
  15    7    8 1
  16    7   32 1
  17    8    9 2
  18    8   10 1
  19   10   11 1
  20   10   33 1
  21   10   34 1
  22   11   12 1
  23   12   14 ar
  24   12   15 ar
  25   14   18 ar
  26   14   35 1
  27   15   16 ar
  28   15   36 1
  29   16   17 ar
  30   16   37 1
  31   17   18 ar
  32   17   38 1
  33   18   39 1
  34   19   21 ar
  35   19   20 ar
  36   20   24 ar
  37   21   22 ar
  38   21   40 1
  39   22   23 ar
  40   22   41 1
  41   23   24 ar
  42   23   42 1
  43   24   25 1
  44   25   26 1
  45   25   27 1
  46   26   43 1
  47   26   44 1
  48   26   45 1
  49   27   46 1
  50   27   47 1
  51   27   48 1

#	End of record

