#	Name: ASD02030584
#	Creating user name:	WinNT
#	Creation time:	15. 06. 2019 20:15

#	Modifying user name:	WinNT
#	Modification time:	15. 06. 2019 20:15

#	Program:	/corina/corina34_cracker 3.40 0067  02.08.2006

@<TRIPOS>MOLECULE
ASD02030584
  49   50    0    0    0
SMALL
NO_CHARGES


@<TRIPOS>ATOM
   1 N1            -0.0347     1.3977     0.1140 N.am    
   2 C2            -0.1199     0.0527     0.0984 C.2     
   3 C3            -1.4372    -0.6046     0.2051 C.ar    
   4 O4             0.8884    -0.6192    -0.0036 O.2     
   5 C5            -1.5277    -1.9989     0.1891 C.ar    
   6 C6            -2.7587    -2.6083     0.2894 C.ar    
   7 C7            -3.9098    -1.8385     0.4063 C.ar    
   8 C8            -3.8241    -0.4516     0.4226 C.ar    
   9 C9            -2.5965     0.1656     0.3281 C.ar    
  10 O10           -5.1215    -2.4432     0.5045 O.3     
  11 C11           -5.3509    -3.1773     1.6104 C.2     
  12 N12           -6.4910    -3.8871     1.7236 N.am    
  13 O13           -4.5299    -3.1994     2.5060 O.2     
  14 C14           -6.7404    -4.6855     2.9264 C.3     
  15 C15           -7.4807    -3.8604     0.6439 C.3     
  16 C16            1.2182     2.0188     0.1301 C.ar    
  17 C17            1.4075     3.2214    -0.5385 C.ar    
  18 C18            2.6459     3.8325    -0.5201 C.ar    
  19 C19            3.6968     3.2483     0.1629 C.ar    
  20 C20            3.5117     2.0510     0.8296 C.ar    
  21 C21            2.2744     1.4374     0.8196 C.ar    
  22 C22           -7.4713    -3.8304     3.9636 C.3     
  23 C23           -7.1813    -4.9841    -0.3504 C.3     
  24 C24            2.8523     5.1371    -1.2457 C.3     
  25 C25            4.6598     1.4179     1.5727 C.3     
  26 H26           -0.8423     1.9349     0.1099 H       
  27 H27           -0.6336    -2.5978     0.0979 H       
  28 H28           -2.8296    -3.6859     0.2768 H       
  29 H29           -4.7211     0.1430     0.5132 H       
  30 H30           -2.5308     1.2435     0.3409 H       
  31 H31           -7.3547    -5.5483     2.6689 H       
  32 H32           -5.7910    -5.0258     3.3400 H       
  33 H33           -8.4778    -4.0008     1.0614 H       
  34 H34           -7.4335    -2.8996     0.1314 H       
  35 H35            0.5872     3.6780    -1.0724 H       
  36 H36            4.6654     3.7259     0.1720 H       
  37 H37            2.1305     0.5023     1.3405 H       
  38 H38           -7.6569    -4.4244     4.8585 H       
  39 H39           -6.8570    -2.9676     4.2211 H       
  40 H40           -8.4206    -3.4901     3.5500 H       
  41 H41           -7.2285    -5.9449     0.1621 H       
  42 H42           -7.9177    -4.9642    -1.1537 H       
  43 H43           -6.1843    -4.8436    -0.7679 H       
  44 H44            2.6358     5.9659    -0.5718 H       
  45 H45            3.8861     5.2048    -1.5845 H       
  46 H46            2.1843     5.1841    -2.1058 H       
  47 H47            4.6704     1.7793     2.6010 H       
  48 H48            4.5413     0.3344     1.5696 H       
  49 H49            5.5981     1.6822     1.0850 H       
@<TRIPOS>BOND
   1    1    2 am
   2    1   16 1
   3    1   26 1
   4    2    3 1
   5    2    4 2
   6    3    5 ar
   7    3    9 ar
   8    5    6 ar
   9    5   27 1
  10    6    7 ar
  11    6   28 1
  12    7    8 ar
  13    7   10 1
  14    8    9 ar
  15    8   29 1
  16    9   30 1
  17   10   11 1
  18   11   12 am
  19   11   13 2
  20   12   14 1
  21   12   15 1
  22   14   22 1
  23   14   31 1
  24   14   32 1
  25   15   23 1
  26   15   33 1
  27   15   34 1
  28   16   17 ar
  29   16   21 ar
  30   17   18 ar
  31   17   35 1
  32   18   24 1
  33   18   19 ar
  34   19   20 ar
  35   19   36 1
  36   20   21 ar
  37   20   25 1
  38   21   37 1
  39   22   38 1
  40   22   39 1
  41   22   40 1
  42   23   41 1
  43   23   42 1
  44   23   43 1
  45   24   44 1
  46   24   45 1
  47   24   46 1
  48   25   47 1
  49   25   48 1
  50   25   49 1

#	End of record

