#	Name: ASD08830141
#	Creating user name:	WinNT
#	Creation time:	15. 06. 2019 21:19

#	Modifying user name:	WinNT
#	Modification time:	15. 06. 2019 21:19

#	Program:	/corina/corina34_cracker 3.40 0067  02.08.2006

@<TRIPOS>MOLECULE
ASD08830141
  33   34    0    0    0
SMALL
NO_CHARGES


@<TRIPOS>ATOM
   1 C1            -0.0179     1.4667     0.0101 C.ar    
   2 C2             0.0021    -0.0041     0.0020 C.2     
   3 C3            -1.2926    -0.7753     0.0102 C.3     
   4 C4            -0.9927    -2.2755    -0.0007 C.3     
   5 N5            -2.2547    -3.0273     0.0073 N.3     
   6 O6             1.0603    -0.5960    -0.0113 O.2     
   7 C7             1.1819     2.1856     0.0025 C.ar    
   8 C8            -0.0570     4.2376     0.0244 C.ar    
   9 C9            -1.2489     3.5309     0.0266 C.ar    
  10 C10           -2.0181    -4.4568    -0.2410 C.3     
  11 C11           -3.3490    -5.2097    -0.1649 C.3     
  12 O12           -4.2665    -4.6418    -1.1035 O.3     
  13 C13           -4.5205    -3.2506    -0.8906 C.3     
  14 C14           -3.2015    -2.4779    -0.9741 C.3     
  15 C15            1.1553     3.5649     0.0097 C.ar    
  16 C16           -1.2371     2.1529     0.0196 C.ar    
  17 Cl17          -0.0818     5.9734     0.0327 Cl      
  18 Cl18           2.6427     4.4600     0.0009 Cl      
  19 H19           -1.8592    -0.5245     0.9070 H       
  20 H20           -1.8762    -0.5150    -0.8728 H       
  21 H21           -0.4261    -2.5263    -0.8975 H       
  22 H22           -0.4091    -2.5358     0.8824 H       
  23 H23            2.1266     1.6624    -0.0086 H       
  24 H24           -2.1895     4.0615     0.0385 H       
  25 H25           -1.5824    -4.5869    -1.2316 H       
  26 H26           -1.3346    -4.8488     0.5123 H       
  27 H27           -3.1869    -6.2606    -0.4046 H       
  28 H28           -3.7584    -5.1242     0.8417 H       
  29 H29           -5.2057    -2.8846    -1.6552 H       
  30 H30           -4.9640    -3.1082     0.0948 H       
  31 H31           -3.3819    -1.4252    -0.7560 H       
  32 H32           -2.7847    -2.5763    -1.9764 H       
  33 H33           -2.1671     1.6039     0.0210 H       
@<TRIPOS>BOND
   1    1    2 1
   2    1    7 ar
   3    1   16 ar
   4    2    3 1
   5    2    6 2
   6    3    4 1
   7    3   19 1
   8    3   20 1
   9    4    5 1
  10    4   21 1
  11    4   22 1
  12    5   10 1
  13    5   14 1
  14    7   15 ar
  15    7   23 1
  16    8    9 ar
  17    8   15 ar
  18    8   17 1
  19    9   16 ar
  20    9   24 1
  21   10   11 1
  22   10   25 1
  23   10   26 1
  24   11   12 1
  25   11   27 1
  26   11   28 1
  27   12   13 1
  28   13   14 1
  29   13   29 1
  30   13   30 1
  31   14   31 1
  32   14   32 1
  33   15   18 1
  34   16   33 1

#	End of record

