#	Name: ASD07930928
#	Creating user name:	WinNT
#	Creation time:	15. 06. 2019 21:13

#	Modifying user name:	WinNT
#	Modification time:	15. 06. 2019 21:13

#	Program:	/corina/corina34_cracker 3.40 0067  02.08.2006

@<TRIPOS>MOLECULE
ASD07930928
  50   55    0    0    0
SMALL
NO_CHARGES


@<TRIPOS>ATOM
   1 C1            -0.0169     1.3965     0.0097 C.ar    
   2 N2             0.0021    -0.0041     0.0020 N.am    
   3 N3            -0.0766    -0.8097     1.1408 N.2     
   4 C4            -0.0352    -2.0721     0.8247 C.2     
   5 C5             0.0814    -2.1540    -0.6492 C.2     
   6 C6             0.0932    -0.7683    -1.1077 C.2     
   7 O7             0.1767    -0.3787    -2.2611 O.2     
   8 C8            -0.0765    -3.3451     1.5694 C.ar    
   9 C9            -0.0033    -4.5445     0.8414 C.ar    
  10 N10            0.1049    -4.5233    -0.5384 N.pl3   
  11 C11            0.1440    -3.3861    -1.2513 C.2     
  12 C12           -0.1842    -3.3729     2.9559 C.ar    
  13 C13           -0.2191    -4.5848     3.6148 C.ar    
  14 C14           -0.1472    -5.7693     2.8998 C.ar    
  15 C15           -0.0406    -5.7550     1.5245 C.ar    
  16 C16            0.1790    -5.7997    -1.2536 C.3     
  17 C17           -1.2119    -6.2571    -1.6102 C.ar    
  18 C18           -1.7684    -5.8736    -2.8188 C.ar    
  19 C19           -3.0496    -6.2993    -3.1391 C.ar    
  20 C20           -3.7275    -7.1005    -2.2251 C.ar    
  21 C21           -3.1016    -7.4425    -1.0337 C.ar    
  22 N22           -1.8810    -7.0218    -0.7695 N.ar    
  23 C23            1.1746     2.1084     0.0022 C.ar    
  24 C24            1.1527     3.4899     0.0093 C.ar    
  25 C25           -0.0539     4.1645     0.0240 C.ar    
  26 C26           -1.2440     3.4599     0.0316 C.ar    
  27 C27           -1.2301     2.0773     0.0191 C.ar    
  28 F28           -2.3924     1.3887     0.0265 F       
  29 F29           -1.0726    -5.0942    -3.6753 F       
  30 N30           -5.0242    -7.5554    -2.5030 N.pl3   
  31 C31           -5.7832    -8.3351    -1.7002 C.2     
  32 C32           -6.9623    -8.5487    -2.3290 C.2     
  33 C33           -6.9237    -7.8781    -3.5564 C.2     
  34 N34           -5.7653    -7.2777    -3.6589 N.2     
  35 H35            0.2292    -3.4422    -2.3264 H       
  36 H36           -0.2399    -2.4501     3.5142 H       
  37 H37           -0.3023    -4.6100     4.6913 H       
  38 H38           -0.1749    -6.7131     3.4242 H       
  39 H39            0.0147    -6.6848     0.9779 H       
  40 H40            0.7643    -5.6724    -2.1642 H       
  41 H41            0.6548    -6.5457    -0.6171 H       
  42 H42           -3.5094    -6.0157    -4.0743 H       
  43 H43           -3.6190    -8.0638    -0.3177 H       
  44 H44            2.1180     1.5829    -0.0089 H       
  45 H45            2.0799     4.0438     0.0038 H       
  46 H46           -0.0673     5.2445     0.0299 H       
  47 H47           -2.1850     3.9899     0.0434 H       
  48 H48           -5.4992    -8.7189    -0.7315 H       
  49 H49           -7.7873    -9.1339    -1.9504 H       
  50 H50           -7.7155    -7.8557    -4.2905 H       
@<TRIPOS>BOND
   1    1    2 1
   2    1   23 ar
   3    1   27 ar
   4    2    3 1
   5    2    6 am
   6    3    4 2
   7    4    5 1
   8    4    8 1
   9    5    6 1
  10    5   11 2
  11    6    7 2
  12    8    9 ar
  13    8   12 ar
  14    9   10 1
  15    9   15 ar
  16   10   11 1
  17   10   16 1
  18   11   35 1
  19   12   13 ar
  20   12   36 1
  21   13   14 ar
  22   13   37 1
  23   14   15 ar
  24   14   38 1
  25   15   39 1
  26   16   17 1
  27   16   40 1
  28   16   41 1
  29   17   18 ar
  30   17   22 ar
  31   18   19 ar
  32   18   29 1
  33   19   20 ar
  34   19   42 1
  35   20   21 ar
  36   20   30 1
  37   21   22 ar
  38   21   43 1
  39   23   24 ar
  40   23   44 1
  41   24   25 ar
  42   24   45 1
  43   25   26 ar
  44   25   46 1
  45   26   27 ar
  46   26   47 1
  47   27   28 1
  48   30   31 1
  49   30   34 1
  50   31   32 2
  51   31   48 1
  52   32   33 1
  53   32   49 1
  54   33   34 2
  55   33   50 1

#	End of record

