#	Name: ASD01230601
#	Creating user name:	WinNT
#	Creation time:	15. 06. 2019 19:14

#	Modifying user name:	WinNT
#	Modification time:	15. 06. 2019 19:14

#	Program:	/corina/corina34_cracker 3.40 0067  02.08.2006

@<TRIPOS>MOLECULE
ASD01230601
  35   37    0    0    0
SMALL
NO_CHARGES


@<TRIPOS>ATOM
   1 C1             0.0364     1.3567     0.8174 C.ar    
   2 C2             0.0082     0.0256     0.3778 C.ar    
   3 N3             1.1900     2.0029     0.8798 N.ar    
   4 N4             1.1354    -0.5743     0.0288 N.ar    
   5 C5             2.2837     0.0830     0.0956 C.ar    
   6 C6             2.3114     1.3918     0.5277 C.ar    
   7 N7            -1.1444     1.9978     1.1811 N.pl3   
   8 N8            -1.1999    -0.6624     0.3092 N.3     
   9 C9            -0.9968    -2.0400    -0.1766 C.3     
  10 C10           -2.0103    -2.5025     0.8796 C.3     
  11 C11           -1.5562    -1.2367     1.6200 C.3     
  12 O12           -3.3698    -2.4677     0.4407 O.3     
  13 C13           -4.2473    -3.2807     1.0856 C.ar    
  14 C14           -3.8367    -4.0051     2.1953 C.ar    
  15 C15           -4.7306    -4.8308     2.8491 C.ar    
  16 C16           -6.0335    -4.9358     2.3983 C.ar    
  17 C17           -6.4450    -4.2153     1.2923 C.ar    
  18 C18           -5.5566    -3.3834     0.6388 C.ar    
  19 C19            3.5651    -0.6029    -0.3026 C.3     
  20 H20            3.2513     1.9212     0.5792 H       
  21 H21           -1.9891     1.5236     1.1307 H       
  22 H22           -1.1225     2.9187     1.4849 H       
  23 H23           -1.3363    -2.1937    -1.2009 H       
  24 H24            0.0116    -2.4167    -0.0050 H       
  25 H25           -1.7407    -3.4329     1.3795 H       
  26 H26           -0.6971    -1.3990     2.2710 H       
  27 H27           -2.3699    -0.7097     2.1183 H       
  28 H28           -2.8190    -3.9237     2.5476 H       
  29 H29           -4.4114    -5.3952     3.7128 H       
  30 H30           -6.7309    -5.5819     2.9108 H       
  31 H31           -7.4631    -4.2995     0.9417 H       
  32 H32           -5.8799    -2.8171    -0.2222 H       
  33 H33            3.7460    -0.4461    -1.3660 H       
  34 H34            4.3932    -0.1877     0.2719 H       
  35 H35            3.4831    -1.6711    -0.1016 H       
@<TRIPOS>BOND
   1    1    2 ar
   2    1    3 ar
   3    1    7 1
   4    2    4 ar
   5    2    8 1
   6    3    6 ar
   7    4    5 ar
   8    5    6 ar
   9    5   19 1
  10    6   20 1
  11    7   21 1
  12    7   22 1
  13    8    9 1
  14    8   11 1
  15    9   10 1
  16    9   23 1
  17    9   24 1
  18   10   11 1
  19   10   12 1
  20   10   25 1
  21   11   26 1
  22   11   27 1
  23   12   13 1
  24   13   14 ar
  25   13   18 ar
  26   14   15 ar
  27   14   28 1
  28   15   16 ar
  29   15   29 1
  30   16   17 ar
  31   16   30 1
  32   17   18 ar
  33   17   31 1
  34   18   32 1
  35   19   33 1
  36   19   34 1
  37   19   35 1

#	End of record

