#	Name: ASD01811768
#	Creating user name:	WinNT
#	Creation time:	15. 06. 2019 19:27

#	Modifying user name:	WinNT
#	Modification time:	15. 06. 2019 19:27

#	Program:	/corina/corina34_cracker 3.40 0067  02.08.2006

@<TRIPOS>MOLECULE
ASD01811768
  55   59    0    0    0
SMALL
NO_CHARGES


@<TRIPOS>ATOM
   1 C1            -0.0222     1.3656     0.0068 C.ar    
   2 C2            -0.0340    -0.0273     0.0124 C.ar    
   3 C3            -1.2422    -0.7128    -0.0127 C.ar    
   4 C4            -2.4329    -0.0213    -0.0433 C.ar    
   5 C5            -2.4280     1.3764    -0.0485 C.ar    
   6 C6            -1.2084     2.0603    -0.0179 C.ar    
   7 F7             1.1525     2.0326     0.0313 F       
   8 O8             1.1359    -0.7156     0.0420 O.3     
   9 C9             1.7258    -0.9374     1.3245 C.3     
  10 C10           -1.2498    -2.2198    -0.0071 C.3     
  11 C11           -1.1158    -2.7281    -1.4194 C.ar    
  12 C12            0.1289    -3.0728    -1.9135 C.ar    
  13 C13            0.2550    -3.5385    -3.2076 C.ar    
  14 C14           -0.8696    -3.6609    -4.0125 C.ar    
  15 C15           -2.1181    -3.3145    -3.5135 C.ar    
  16 C16           -2.2385    -2.8542    -2.2168 C.ar    
  17 N17           -0.7448    -4.1329    -5.3266 N.pl3   
  18 C18           -1.7536    -4.2991    -6.2117 C.2     
  19 C19           -1.2187    -4.7712    -7.3616 C.2     
  20 C20            0.1621    -4.8981    -7.1742 C.2     
  21 N21            0.4478    -4.5102    -5.9573 N.2     
  22 C22           -3.5144     2.3710    -0.0778 C.2     
  23 N23           -3.0085     3.6162    -0.0708 N.am    
  24 C24           -1.5441     3.5307    -0.0327 C.3     
  25 O25           -4.7002     2.1035    -0.1048 O.2     
  26 C26           -3.7904     4.8548    -0.0943 C.3     
  27 C27           -4.0964     5.2921     1.3396 C.3     
  28 O28           -2.8827     5.6623     2.0041 O.3     
  29 C29           -2.9323     7.0476     2.3807 C.3     
  30 C30           -4.4410     7.3839     2.4879 C.3     
  31 C31           -5.0165     6.5317     1.3240 C.3     
  32 H32           -3.3695    -0.5586    -0.0634 H       
  33 H33            1.0030    -1.4270     1.9771 H       
  34 H34            2.6050    -1.5724     1.2151 H       
  35 H35            2.0195     0.0179     1.7595 H       
  36 H36           -0.4152    -2.5851     0.5913 H       
  37 H37           -2.1869    -2.5767     0.4201 H       
  38 H38            1.0033    -2.9774    -1.2869 H       
  39 H39            1.2275    -3.8069    -3.5932 H       
  40 H40           -2.9946    -3.4083    -4.1374 H       
  41 H41           -3.2093    -2.5846    -1.8280 H       
  42 H42           -2.7985    -4.0928    -6.0328 H       
  43 H43           -1.7618    -5.0083    -8.2645 H       
  44 H44            0.8707    -5.2510    -7.9088 H       
  45 H45           -1.1640     4.0115     0.8686 H       
  46 H46           -1.1181     4.0029    -0.9180 H       
  47 H47           -3.2200     5.6351    -0.5983 H       
  48 H48           -4.7247     4.6846    -0.6294 H       
  49 H49           -4.5799     4.4778     1.8792 H       
  50 H50           -2.4423     7.1959     3.3430 H       
  51 H51           -2.4606     7.6647     1.6160 H       
  52 H52           -4.8476     7.0641     3.4473 H       
  53 H53           -4.6194     8.4464     2.3223 H       
  54 H54           -4.9345     7.0638     0.3763 H       
  55 H55           -6.0503     6.2500     1.5238 H       
@<TRIPOS>BOND
   1    1    2 ar
   2    1    7 1
   3    1    6 ar
   4    2    3 ar
   5    2    8 1
   6    3    4 ar
   7    3   10 1
   8    4    5 ar
   9    4   32 1
  10    5    6 ar
  11    5   22 1
  12    6   24 1
  13    8    9 1
  14    9   33 1
  15    9   34 1
  16    9   35 1
  17   10   11 1
  18   10   36 1
  19   10   37 1
  20   11   12 ar
  21   11   16 ar
  22   12   13 ar
  23   12   38 1
  24   13   14 ar
  25   13   39 1
  26   14   15 ar
  27   14   17 1
  28   15   16 ar
  29   15   40 1
  30   16   41 1
  31   17   18 1
  32   17   21 1
  33   18   19 2
  34   18   42 1
  35   19   20 1
  36   19   43 1
  37   20   21 2
  38   20   44 1
  39   22   23 am
  40   22   25 2
  41   23   24 1
  42   23   26 1
  43   24   45 1
  44   24   46 1
  45   26   27 1
  46   26   47 1
  47   26   48 1
  48   27   28 1
  49   27   31 1
  50   27   49 1
  51   28   29 1
  52   29   30 1
  53   29   50 1
  54   29   51 1
  55   30   31 1
  56   30   52 1
  57   30   53 1
  58   31   54 1
  59   31   55 1

#	End of record

