#	Name: ASD01882381
#	Creating user name:	WinNT
#	Creation time:	15. 06. 2019 19:44

#	Modifying user name:	WinNT
#	Modification time:	15. 06. 2019 19:44

#	Program:	/corina/corina34_cracker 3.40 0067  02.08.2006

@<TRIPOS>MOLECULE
ASD01882381
  52   56    0    0    0
SMALL
NO_CHARGES


@<TRIPOS>ATOM
   1 C1             1.1389     1.1895     0.9391 C.2     
   2 C2             1.4256    -0.1849     0.8795 C.2     
   3 C3             0.9120    -0.9293    -0.1475 C.2     
   4 C4             0.1064    -0.3057    -1.1252 C.2     
   5 C5            -0.1557     1.0137    -1.0486 C.2     
   6 N6             0.3515     1.7648    -0.0286 N.pl3   
   7 N7             0.9510     3.2638     1.3975 N.2     
   8 N8             1.4719     2.1528     1.7846 N.2     
   9 C9             0.2604     3.0849     0.3025 C.2     
  10 C10            2.2881    -0.8308     1.9331 C.3     
  11 F11            3.6175    -0.8533     1.4980 F       
  12 F12            2.1988    -0.0988     3.1220 F       
  13 F13            1.8486    -2.1399     2.1574 F       
  14 N14            1.1823    -2.2920    -0.2281 N.pl3   
  15 C15            2.5503    -2.7708    -0.4693 C.3     
  16 C16            2.5365    -3.7154    -1.6754 C.3     
  17 C17            1.5142    -4.8285    -1.4348 C.3     
  18 C18            0.1190    -4.2181    -1.2834 C.3     
  19 C19            0.1063    -3.2794    -0.0674 C.3     
  20 O20            1.5218    -5.7297    -2.5438 O.3     
  21 C21            1.1949    -7.9662    -3.3030 C.ar    
  22 C22            1.1168    -7.0049    -2.3054 C.ar    
  23 C23            0.6185    -7.3652    -1.0578 C.ar    
  24 C24            0.2184    -8.6776    -0.8623 C.ar    
  25 C25            0.3267    -9.5784    -1.9049 C.ar    
  26 N26            0.8037    -9.2043    -3.0761 N.ar    
  27 C27           -0.4997     4.1431    -0.4548 C.3     
  28 C28           -1.9317     4.2222     0.0781 C.3     
  29 C29           -2.8348     5.3221    -0.4837 C.3     
  30 C30           -3.0649     3.8638    -0.8854 C.3     
  31 H31           -0.3010    -0.8886    -1.9379 H       
  32 H32           -0.7727     1.4812    -1.8017 H       
  33 H33            3.2030    -1.9229    -0.6767 H       
  34 H34            2.9105    -3.3056     0.4095 H       
  35 H35            2.2631    -3.1577    -2.5711 H       
  36 H36            3.5263    -4.1526    -1.8063 H       
  37 H37            1.7742    -5.3701    -0.5253 H       
  38 H38           -0.1316    -3.6557    -2.1829 H       
  39 H39           -0.6119    -5.0131    -1.1355 H       
  40 H40            0.2713    -3.8548     0.8435 H       
  41 H41           -0.8541    -2.7671    -0.0095 H       
  42 H42            1.5760    -7.6961    -4.2767 H       
  43 H43            0.5455    -6.6401    -0.2608 H       
  44 H44           -0.1730    -8.9928     0.0936 H       
  45 H45            0.0168   -10.6026    -1.7584 H       
  46 H46           -0.0091     5.1075    -0.3226 H       
  47 H47           -0.5199     3.8879    -1.5143 H       
  48 H48           -2.0586     3.9536     1.1269 H       
  49 H49           -3.5561     5.7768     0.1954 H       
  50 H50           -2.4088     5.9893    -1.2329 H       
  51 H51           -2.7902     3.5716    -1.8990 H       
  52 H52           -3.9375     3.3591    -0.4707 H       
@<TRIPOS>BOND
   1    1    2 1
   2    1    6 1
   3    1    8 2
   4    2    3 2
   5    2   10 1
   6    3    4 1
   7    3   14 1
   8    4    5 2
   9    4   31 1
  10    5    6 1
  11    5   32 1
  12    6    9 1
  13    7    8 1
  14    7    9 2
  15    9   27 1
  16   10   11 1
  17   10   12 1
  18   10   13 1
  19   14   15 1
  20   14   19 1
  21   15   16 1
  22   15   33 1
  23   15   34 1
  24   16   17 1
  25   16   35 1
  26   16   36 1
  27   17   18 1
  28   17   20 1
  29   17   37 1
  30   18   19 1
  31   18   38 1
  32   18   39 1
  33   19   40 1
  34   19   41 1
  35   20   22 1
  36   21   22 ar
  37   21   26 ar
  38   21   42 1
  39   22   23 ar
  40   23   24 ar
  41   23   43 1
  42   24   25 ar
  43   24   44 1
  44   25   26 ar
  45   25   45 1
  46   27   28 1
  47   27   46 1
  48   27   47 1
  49   28   29 1
  50   28   30 1
  51   28   48 1
  52   29   30 1
  53   29   49 1
  54   29   50 1
  55   30   51 1
  56   30   52 1

#	End of record

