#	Name: ASD01520008
#	Creating user name:	WinNT
#	Creation time:	15. 06. 2019 19:21

#	Modifying user name:	WinNT
#	Modification time:	15. 06. 2019 19:21

#	Program:	/corina/corina34_cracker 3.40 0067  02.08.2006

@<TRIPOS>MOLECULE
ASD01520008
  56   55    0    0    0
SMALL
NO_CHARGES


@<TRIPOS>ATOM
   1 C1            -0.0187     1.5258     0.0104 C.3     
   2 C2             0.0021    -0.0041     0.0020 C.3     
   3 C3             0.7421    -0.5109     1.2415 C.3     
   4 C4             0.7628    -2.0407     1.2331 C.3     
   5 C5             1.5028    -2.5476     2.4727 C.3     
   6 C6             1.5232    -4.0544     2.4644 C.2     
   7 C7             2.6631    -4.6945     2.5489 C.2     
   8 C8             2.6835    -6.2013     2.5406 C.3     
   9 C9             3.5931    -6.6853     1.4409 C.2     
  10 C10            4.5765    -7.5054     1.7176 C.2     
  11 C11            5.4860    -7.9894     0.6178 C.3     
  12 C12            6.9386    -7.6766     0.9826 C.3     
  13 C13            7.8620    -8.1680    -0.1339 C.3     
  14 C14            9.3146    -7.8551     0.2309 C.3     
  15 C15           10.2381    -8.3465    -0.8856 C.3     
  16 C16           11.6906    -8.0336    -0.5208 C.3     
  17 C17           12.6141    -8.5250    -1.6374 C.3     
  18 C18           14.0666    -8.2121    -1.2725 C.3     
  19 O19           14.9291    -8.6711    -2.3154 O.3     
  20 S20           16.4062    -8.4104    -2.0567 S.o2    
  21 O21           17.0930    -8.5942    -3.3258 O.co2   
  22 O22           16.5122    -7.0431    -1.5716 O.co2   
  23 O23           16.8345    -9.3784    -1.0590 O.co2   
  24 H24            1.0039     1.9031     0.0027 H       
  25 H25           -0.5459     1.8868    -0.8726 H       
  26 H26           -0.5289     1.8773     0.9072 H       
  27 H27           -1.0205    -0.3814     0.0098 H       
  28 H28            0.5123    -0.3556    -0.8948 H       
  29 H29            1.7647    -0.1336     1.2338 H       
  30 H30            0.2319    -0.1594     2.1383 H       
  31 H31           -0.2598    -2.4180     1.2409 H       
  32 H32            1.2730    -2.3923     0.3363 H       
  33 H33            2.5254    -2.1703     2.4649 H       
  34 H34            0.9926    -2.1961     3.3695 H       
  35 H35            0.5982    -4.6066     2.3887 H       
  36 H36            3.5882    -4.1423     2.6246 H       
  37 H37            3.0491    -6.5650     3.5009 H       
  38 H38            1.6748    -6.5774     2.3698 H       
  39 H39            3.4343    -6.3561     0.4246 H       
  40 H40            4.7353    -7.8347     2.7338 H       
  41 H41            5.3661    -9.0658     0.4945 H       
  42 H42            5.2290    -7.4861    -0.3142 H       
  43 H43            7.0585    -6.6002     1.1060 H       
  44 H44            7.1956    -8.1799     1.9146 H       
  45 H45            7.7422    -9.2443    -0.2572 H       
  46 H46            7.6050    -7.6646    -1.0659 H       
  47 H47            9.4345    -6.7787     0.3542 H       
  48 H48            9.5716    -8.3585     1.1629 H       
  49 H49           10.1182    -9.4228    -1.0090 H       
  50 H50            9.9810    -7.8431    -1.8176 H       
  51 H51           11.8105    -6.9573    -0.3975 H       
  52 H52           11.9477    -8.5370     0.4112 H       
  53 H53           12.4942    -9.6013    -1.7607 H       
  54 H54           12.3570    -8.0216    -2.5694 H       
  55 H55           14.1865    -7.1358    -1.1492 H       
  56 H56           14.3237    -8.7155    -0.3405 H       
@<TRIPOS>BOND
   1    1    2 1
   2    1   24 1
   3    1   25 1
   4    1   26 1
   5    2    3 1
   6    2   27 1
   7    2   28 1
   8    3    4 1
   9    3   29 1
  10    3   30 1
  11    4    5 1
  12    4   31 1
  13    4   32 1
  14    5    6 1
  15    5   33 1
  16    5   34 1
  17    6    7 2
  18    6   35 1
  19    7    8 1
  20    7   36 1
  21    8    9 1
  22    8   37 1
  23    8   38 1
  24    9   10 2
  25    9   39 1
  26   10   11 1
  27   10   40 1
  28   11   12 1
  29   11   41 1
  30   11   42 1
  31   12   13 1
  32   12   43 1
  33   12   44 1
  34   13   14 1
  35   13   45 1
  36   13   46 1
  37   14   15 1
  38   14   47 1
  39   14   48 1
  40   15   16 1
  41   15   49 1
  42   15   50 1
  43   16   17 1
  44   16   51 1
  45   16   52 1
  46   17   18 1
  47   17   53 1
  48   17   54 1
  49   18   19 1
  50   18   55 1
  51   18   56 1
  52   19   20 1
  53   20   21 ar
  54   20   22 ar
  55   20   23 ar

#	End of record

