#	Name: ASD01882102
#	Creating user name:	WinNT
#	Creation time:	15. 06. 2019 19:43

#	Modifying user name:	WinNT
#	Modification time:	15. 06. 2019 19:43

#	Program:	/corina/corina34_cracker 3.40 0067  02.08.2006

@<TRIPOS>MOLECULE
ASD01882102
  48   52    0    0    0
SMALL
NO_CHARGES


@<TRIPOS>ATOM
   1 C1            -0.0161     1.3337     0.0094 C.2     
   2 N2             0.0021    -0.0041     0.0020 N.am    
   3 C3             1.2613    -0.4841    -0.0126 C.2     
   4 C4             2.1640     0.7337    -0.0147 C.3     
   5 N5             1.2200     1.8645     0.0004 N.am    
   6 O6            -1.0354     1.9955     0.0180 O.2     
   7 O7             1.6013    -1.6477    -0.0215 O.2     
   8 C8            -1.1986    -0.8435     0.0097 C.3     
   9 C9             1.5609     3.2893     0.0041 C.3     
  10 C10            1.6916     3.7708     1.4261 C.ar    
  11 C11            2.9179     3.7119     2.0635 C.ar    
  12 C12            3.0437     4.1519     3.3654 C.ar    
  13 C13            1.9319     4.6564     4.0383 C.ar    
  14 C14            0.6986     4.7133     3.3908 C.ar    
  15 C15            0.5860     4.2754     2.0870 C.ar    
  16 C16            2.3844     5.9829     8.0167 C.ar    
  17 C17            1.1254     6.0644     7.4194 C.ar    
  18 C18            0.9504     5.6384     6.1213 C.ar    
  19 C19            2.0605     5.1303     5.4373 C.ar    
  20 C20            3.2920     5.0765     6.0952 C.ar    
  21 N21            3.4160     5.4935     7.3336 N.ar    
  22 N22            1.0078     6.8845     9.6497 N.am    
  23 C23            2.2707     6.5002     9.3978 C.2     
  24 C24            0.1963     6.6544     8.4490 C.3     
  25 O25            3.1883     6.5675    10.1918 O.2     
  26 C26            0.5226     7.4461    10.9128 C.3     
  27 C27            0.6601     6.5831    12.1687 C.3     
  28 C28            1.5652     7.8013    11.9748 C.3     
  29 H29            2.7924     0.7467     0.8759 H       
  30 H30            2.7753     0.7564    -0.9169 H       
  31 H31           -1.5068    -1.0461    -1.0159 H       
  32 H32           -0.9813    -1.7838     0.5163 H       
  33 H33           -2.0010    -0.3250     0.5345 H       
  34 H34            2.5060     3.4381    -0.5182 H       
  35 H35            0.7749     3.8522    -0.4994 H       
  36 H36            3.7785     3.3206     1.5413 H       
  37 H37            4.0016     4.1051     3.8622 H       
  38 H38           -0.1661     5.1033     3.9072 H       
  39 H39           -0.3679     4.3231     1.5829 H       
  40 H40           -0.0171     5.6943     5.6447 H       
  41 H41            4.1552     4.6862     5.5767 H       
  42 H42           -0.2191     7.5938     8.0842 H       
  43 H43           -0.6060     5.9523     8.6757 H       
  44 H44           -0.3562     8.0864    10.8359 H       
  45 H45           -0.1281     6.6559    12.9182 H       
  46 H46            1.1115     5.5975    12.0552 H       
  47 H47            2.6121     7.6171    11.7336 H       
  48 H48            1.3726     8.6756    12.5966 H       
@<TRIPOS>BOND
   1    1    2 am
   2    1    5 am
   3    1    6 2
   4    2    3 am
   5    2    8 1
   6    3    4 1
   7    3    7 2
   8    4    5 1
   9    4   29 1
  10    4   30 1
  11    5    9 1
  12    8   31 1
  13    8   32 1
  14    8   33 1
  15    9   10 1
  16    9   34 1
  17    9   35 1
  18   10   11 ar
  19   10   15 ar
  20   11   12 ar
  21   11   36 1
  22   12   13 ar
  23   12   37 1
  24   13   14 ar
  25   13   19 1
  26   14   15 ar
  27   14   38 1
  28   15   39 1
  29   16   17 ar
  30   16   21 ar
  31   16   23 1
  32   17   18 ar
  33   17   24 1
  34   18   19 ar
  35   18   40 1
  36   19   20 ar
  37   20   21 ar
  38   20   41 1
  39   22   23 am
  40   22   24 1
  41   22   26 1
  42   23   25 2
  43   24   42 1
  44   24   43 1
  45   26   27 1
  46   26   28 1
  47   26   44 1
  48   27   28 1
  49   27   45 1
  50   27   46 1
  51   28   47 1
  52   28   48 1

#	End of record

