#	Name: ASD00110037
#	Creating user name:	WinNT
#	Creation time:	15. 06. 2019 18:30

#	Modifying user name:	WinNT
#	Modification time:	15. 06. 2019 18:30

#	Program:	/corina/corina34_cracker 3.40 0067  02.08.2006

@<TRIPOS>MOLECULE
ASD00110037
  67   69    0    0    0
SMALL
NO_CHARGES


@<TRIPOS>ATOM
   1 C1            -0.0187     1.5270     0.0104 C.3     
   2 C2            -1.4335    -0.5293     0.0744 C.3     
   3 C3            -1.4169    -2.0361     0.0863 C.2     
   4 N4            -1.2604    -2.7174    -1.0660 N.am    
   5 O5            -1.5445    -2.6357     1.1328 O.2     
   6 C6            -1.2442    -4.1823    -1.0544 C.3     
   7 C7            -2.6798    -4.7086    -1.1092 C.3     
   8 O8            -3.2724    -4.3469    -2.3582 O.3     
   9 C9            -0.4670    -4.6934    -2.2691 C.3     
  10 O10           -1.0976    -4.2334    -3.4661 O.3     
  11 C11            1.4162     2.0578    -0.0004 C.3     
  12 C12            1.3948     3.5832    -0.1177 C.3     
  13 N13           -2.0748    -0.0373     1.3005 N.3     
  14 C14           -2.1488     1.4293     1.3093 C.3     
  15 C15           -0.7345     2.0129     1.2737 C.3     
  16 C16            0.0021    -0.0041     0.0020 C.3     
  17 C17            0.9470    -4.1750    -2.2152 C.ar    
  18 C18            3.5412    -3.2242    -2.1167 C.ar    
  19 C19            2.5221    -2.4067    -2.5683 C.ar    
  20 C20            1.2251    -2.8822    -2.6178 C.ar    
  21 C21            1.9651    -4.9905    -1.7577 C.ar    
  22 C22            3.2622    -4.5150    -1.7082 C.ar    
  23 C23            2.8297     4.1141    -0.1286 C.3     
  24 C24            2.8128     5.6247    -0.3708 C.3     
  25 C25            4.2477     6.1555    -0.3817 C.3     
  26 C26            4.9101     5.8625     0.9660 C.3     
  27 C27            4.9270     4.3519     1.2082 C.3     
  28 C28            3.4921     3.8210     1.2191 C.3     
  29 C29            6.3450     6.3934     0.9552 C.3     
  30 H30           -0.5477     1.8889    -0.8712 H       
  31 H31           -1.9924    -0.1790    -0.7934 H       
  32 H32           -1.1584    -2.2379    -1.9029 H       
  33 H33           -0.7632    -4.5332    -0.1414 H       
  34 H34           -2.6728    -5.7941    -1.0112 H       
  35 H35           -3.2576    -4.2738    -0.2935 H       
  36 H36           -4.1852    -4.6487    -2.4626 H       
  37 H37           -0.4550    -5.7833    -2.2605 H       
  38 H38           -1.1436    -3.2704    -3.5414 H       
  39 H39            1.9165     1.7716     0.9247 H       
  40 H40            1.9534     1.6356    -0.8497 H       
  41 H41            0.8945     3.8694    -1.0429 H       
  42 H42            0.8576     4.0054     0.7315 H       
  43 H43           -2.9896    -0.4462     1.4192 H       
  44 H44           -2.7044     1.7701     0.4357 H       
  45 H45           -2.6563     1.7619     2.2148 H       
  46 H46           -0.1827     1.6836     2.1542 H       
  47 H47           -0.7902     3.1015     1.2645 H       
  48 H48            0.4727    -0.3566    -0.9158 H       
  49 H49            0.5655    -0.3651     0.8624 H       
  50 H50            4.5546    -2.8527    -2.0780 H       
  51 H51            2.7401    -1.3982    -2.8875 H       
  52 H52            0.4290    -2.2437    -2.9715 H       
  53 H53            1.7472    -5.9990    -1.4385 H       
  54 H54            4.0584    -5.1537    -1.3553 H       
  55 H55            3.3921     3.6248    -0.9239 H       
  56 H56            2.3409     5.8334    -1.3309 H       
  57 H57            2.2504     6.1139     0.4245 H       
  58 H58            4.8101     5.6663    -1.1770 H       
  59 H59            4.2356     7.2317    -0.5542 H       
  60 H60            4.3477     6.3517     1.7613 H       
  61 H61            5.4894     3.8627     0.4130 H       
  62 H62            5.3989     4.1431     2.1684 H       
  63 H63            2.9297     4.3103     2.0144 H       
  64 H64            3.5042     2.7448     1.3917 H       
  65 H65            6.3329     7.4696     0.7826 H       
  66 H66            6.8169     6.1846     1.9153 H       
  67 H67            6.9074     5.9042     0.1599 H       
@<TRIPOS>BOND
   1    1   16 1
   2    1   11 1
   3    1   15 1
   4    1   30 1
   5    2    3 1
   6    2   13 1
   7    2   16 1
   8    2   31 1
   9    3    4 am
  10    3    5 2
  11    4    6 1
  12    4   32 1
  13    6    7 1
  14    6    9 1
  15    6   33 1
  16    7    8 1
  17    7   34 1
  18    7   35 1
  19    8   36 1
  20    9   10 1
  21    9   17 1
  22    9   37 1
  23   10   38 1
  24   11   12 1
  25   11   39 1
  26   11   40 1
  27   12   23 1
  28   12   41 1
  29   12   42 1
  30   13   14 1
  31   13   43 1
  32   14   15 1
  33   14   44 1
  34   14   45 1
  35   15   46 1
  36   15   47 1
  37   16   48 1
  38   16   49 1
  39   17   21 ar
  40   17   20 ar
  41   18   19 ar
  42   18   22 ar
  43   18   50 1
  44   19   20 ar
  45   19   51 1
  46   20   52 1
  47   21   22 ar
  48   21   53 1
  49   22   54 1
  50   23   24 1
  51   23   28 1
  52   23   55 1
  53   24   25 1
  54   24   56 1
  55   24   57 1
  56   25   26 1
  57   25   58 1
  58   25   59 1
  59   26   29 1
  60   26   27 1
  61   26   60 1
  62   27   28 1
  63   27   61 1
  64   27   62 1
  65   28   63 1
  66   28   64 1
  67   29   65 1
  68   29   66 1
  69   29   67 1

#	End of record

