#	Name: ASD03470014
#	Creating user name:	WinNT
#	Creation time:	15. 06. 2019 20:42

#	Modifying user name:	WinNT
#	Modification time:	15. 06. 2019 20:42

#	Program:	/corina/corina34_cracker 3.40 0067  02.08.2006

@<TRIPOS>MOLECULE
ASD03470014
 127  128    0    0    0
SMALL
NO_CHARGES


@<TRIPOS>ATOM
   1 N1             2.2176    -0.9799    -3.1033 N.am    
   2 C2             3.1881     0.0970    -3.4033 C.3     
   3 C3             2.6981     1.3762    -2.7750 C.2     
   4 O4             1.5096     1.5985    -2.6796 O.2     
   5 C5             4.5561    -0.2685    -2.8238 C.3     
   6 O6             5.4640     0.8164    -3.0251 O.3     
   7 N7             3.6079     2.2784    -2.3155 N.am    
   8 C8             3.0679     3.5129    -1.7123 C.3     
   9 C9             3.7515     3.7486    -0.3901 C.2     
  10 O10            4.8958     3.3879    -0.2134 O.2     
  11 C11            3.3325     4.6970    -2.6443 C.3     
  12 C12            2.5610     4.5102    -3.9253 C.2     
  13 C13            2.9511     3.8001    -5.0011 C.2     
  14 N14            1.3265     5.0247    -4.2168 N.pl3   
  15 C15            1.0075     4.6156    -5.4636 C.2     
  16 N16            1.9837     3.8836    -5.9264 N.2     
  17 N17            3.0584     4.3765     0.6056 N.am    
  18 C18            3.8007     4.5709     1.8717 C.3     
  19 C19            2.9573     4.0547     3.0089 C.2     
  20 O20            1.7483     4.1421     2.9667 O.2     
  21 C21            5.1193     3.7968     1.8179 C.3     
  22 C22            4.8272     2.2983     1.7176 C.3     
  23 C23            6.1381     1.5355     1.5165 C.3     
  24 C24            5.8461     0.0370     1.4162 C.3     
  25 N25            7.1047    -0.6954     1.2232 N.3     
  26 N26            3.5710     3.4887     4.0840 N.am    
  27 C27            2.6925     3.0034     5.1667 C.3     
  28 C28            3.1158     1.6086     5.5495 C.2     
  29 O29            4.2753     1.2665     5.4526 O.2     
  30 C30            2.8158     3.9275     6.3798 C.3     
  31 C31            1.9046     3.4226     7.5004 C.3     
  32 C32            4.2660     3.9381     6.8675 C.3     
  33 C33            0.4441     3.5292     7.0571 C.3     
  34 N34            2.1693     0.7369     6.0081 N.am    
  35 C35            2.6662    -0.6114     6.3641 C.3     
  36 C36            1.8045    -1.6396     5.6776 C.2     
  37 O37            0.6235    -1.4305     5.4971 O.2     
  38 C38            4.1159    -0.7635     5.8993 C.3     
  39 C39            4.6283    -2.1259     6.2898 C.2     
  40 O40            5.8018    -2.5650     5.8082 O.3     
  41 O41            3.9829    -2.8229     7.0364 O.2     
  42 N42            2.3700    -2.8061     5.2625 N.am    
  43 C43            1.4754    -3.7749     4.5988 C.3     
  44 C44            2.1322    -4.2551     3.3304 C.2     
  45 O45            3.3406    -4.3125     3.2439 O.2     
  46 C46            1.2269    -4.9639     5.5292 C.3     
  47 C47            0.4741    -4.4985     6.7489 C.2     
  48 N48            0.1426    -5.3799     7.7132 N.am    
  49 O49            0.1665    -3.3309     6.8629 O.2     
  50 N50            1.3413    -4.6251     2.2799 N.am    
  51 C51            2.0630    -5.0855     1.0720 C.3     
  52 C52            1.5474    -4.3191    -0.1187 C.2     
  53 O53            0.3892    -3.9621    -0.1655 O.2     
  54 C54            3.5616    -4.8266     1.2395 C.3     
  55 C55            4.1838    -5.9509     2.0699 C.3     
  56 C56            4.2152    -7.2380     1.2433 C.3     
  57 C57            5.6102    -5.5637     2.4652 C.3     
  58 N58            2.3994    -4.0328    -1.1409 N.am    
  59 C59            1.8361    -3.2810    -2.2798 C.3     
  60 C60            2.7563    -2.1341    -2.6096 C.2     
  61 O61            3.9530    -2.2339    -2.4398 O.2     
  62 C62            1.7134    -4.2048    -3.4932 C.3     
  63 C63            0.7106    -5.2905    -3.1986 C.2     
  64 O64            0.1514    -5.3221    -2.1280 O.2     
  65 O65            0.4385    -6.2224    -4.1256 O.3     
  66 H66            1.2639    -0.8719    -3.2439 H       
  67 H67            3.2682     0.2270    -4.4826 H       
  68 H68            4.4574    -0.4664    -1.7565 H       
  69 H69            4.9367    -1.1586    -3.3247 H       
  70 H70            6.3532     0.6540    -2.6816 H       
  71 H71            4.5623     2.1182    -2.3809 H       
  72 H72            1.9950     3.4030    -1.5542 H       
  73 H73            3.0134     5.6195    -2.1593 H       
  74 H74            4.3980     4.7532    -2.8668 H       
  75 H75            3.8800     3.2583    -5.1011 H       
  76 H76            0.7825     5.5795    -3.6362 H       
  77 H77            0.0942     4.8522    -5.9893 H       
  78 H78            2.1426     4.6749     0.4908 H       
  79 H79            4.0050     5.6317     2.0167 H       
  80 H80            5.6918     4.1145     0.9465 H       
  81 H81            5.6942     3.9951     2.7224 H       
  82 H82            4.3468     1.9595     2.6355 H       
  83 H83            4.1655     2.1129     0.8714 H       
  84 H84            6.6185     1.8742     0.5986 H       
  85 H85            6.7998     1.7208     2.3627 H       
  86 H86            5.3657    -0.3018     2.3341 H       
  87 H87            5.1844    -0.1484     0.5701 H       
  88 H88            6.9385    -1.6882     1.1539 H       
  89 H89            7.6009    -0.3545     0.4134 H       
  90 H90            4.5362     3.4080     4.1359 H       
  91 H91            1.6593     2.9892     4.8198 H       
  92 H92            2.5198     4.9381     6.0983 H       
  93 H93            2.1423     2.3819     7.7208 H       
  94 H94            2.0582     4.0275     8.3940 H       
  95 H95            4.9152     4.2979     6.0692 H       
  96 H96            4.3538     4.5965     7.7318 H       
  97 H97            4.5620     2.9276     7.1490 H       
  98 H98           -0.2051     3.1695     7.8554 H       
  99 H99            0.2064     4.5699     6.8366 H       
 100 H100           0.2905     2.9243     6.1635 H       
 101 H101           1.2355     0.9846     6.0948 H       
 102 H102           2.6095    -0.7487     7.4439 H       
 103 H103           4.1634    -0.6543     4.8158 H       
 104 H104           4.7306     0.0043     6.3691 H       
 105 H105           6.0889    -3.4453     6.0869 H       
 106 H106           3.3128    -2.9912     5.3957 H       
 107 H107           0.5279    -3.2922     4.3593 H       
 108 H108           0.6397    -5.7183     5.0057 H       
 109 H109           2.1816    -5.3930     5.8333 H       
 110 H110           0.3885    -6.3137     7.6220 H       
 111 H111          -0.3420    -5.0803     8.4983 H       
 112 H112           0.3729    -4.5890     2.3226 H       
 113 H113           1.8900    -6.1518     0.9267 H       
 114 H114           4.0365    -4.7937     0.2589 H       
 115 H115           3.7112    -3.8740     1.7478 H       
 116 H116           3.5884    -6.1109     2.9688 H       
 117 H117           4.8106    -7.0781     0.3444 H       
 118 H118           4.6584    -8.0391     1.8349 H       
 119 H119           3.1990    -7.5139     0.9617 H       
 120 H120           5.5878    -4.6468     3.0541 H       
 121 H121           6.0534    -6.3647     3.0568 H       
 122 H122           6.2056    -5.4038     1.5663 H       
 123 H123           3.3293    -4.3083    -1.1218 H       
 124 H124           0.8518    -2.8966    -2.0125 H       
 125 H125           1.3815    -3.6283    -4.3567 H       
 126 H126           2.6831    -4.6543    -3.7073 H       
 127 H127          -0.2116    -6.8986    -3.8907 H       
@<TRIPOS>BOND
   1    1   60 am
   2    1    2 1
   3    1   66 1
   4    2    3 1
   5    2    5 1
   6    2   67 1
   7    3    7 am
   8    3    4 2
   9    5    6 1
  10    5   68 1
  11    5   69 1
  12    6   70 1
  13    7    8 1
  14    7   71 1
  15    8    9 1
  16    8   11 1
  17    8   72 1
  18    9   17 am
  19    9   10 2
  20   11   12 1
  21   11   73 1
  22   11   74 1
  23   12   14 1
  24   12   13 2
  25   13   16 1
  26   13   75 1
  27   14   15 1
  28   14   76 1
  29   15   16 2
  30   15   77 1
  31   17   18 1
  32   17   78 1
  33   18   21 1
  34   18   19 1
  35   18   79 1
  36   19   20 2
  37   19   26 am
  38   21   22 1
  39   21   80 1
  40   21   81 1
  41   22   23 1
  42   22   82 1
  43   22   83 1
  44   23   24 1
  45   23   84 1
  46   23   85 1
  47   24   25 1
  48   24   86 1
  49   24   87 1
  50   25   88 1
  51   25   89 1
  52   26   27 1
  53   26   90 1
  54   27   28 1
  55   27   30 1
  56   27   91 1
  57   28   29 2
  58   28   34 am
  59   30   32 1
  60   30   31 1
  61   30   92 1
  62   31   33 1
  63   31   93 1
  64   31   94 1
  65   32   95 1
  66   32   96 1
  67   32   97 1
  68   33   98 1
  69   33   99 1
  70   33  100 1
  71   34   35 1
  72   34  101 1
  73   35   36 1
  74   35   38 1
  75   35  102 1
  76   36   37 2
  77   36   42 am
  78   38   39 1
  79   38  103 1
  80   38  104 1
  81   39   40 1
  82   39   41 2
  83   40  105 1
  84   42   43 1
  85   42  106 1
  86   43   44 1
  87   43   46 1
  88   43  107 1
  89   44   50 am
  90   44   45 2
  91   46   47 1
  92   46  108 1
  93   46  109 1
  94   47   49 2
  95   47   48 am
  96   48  110 1
  97   48  111 1
  98   50   51 1
  99   50  112 1
 100   51   54 1
 101   51   52 1
 102   51  113 1
 103   52   58 am
 104   52   53 2
 105   54   55 1
 106   54  114 1
 107   54  115 1
 108   55   56 1
 109   55   57 1
 110   55  116 1
 111   56  117 1
 112   56  118 1
 113   56  119 1
 114   57  120 1
 115   57  121 1
 116   57  122 1
 117   58   59 1
 118   58  123 1
 119   59   62 1
 120   59   60 1
 121   59  124 1
 122   60   61 2
 123   62   63 1
 124   62  125 1
 125   62  126 1
 126   63   64 2
 127   63   65 1
 128   65  127 1

#	End of record

