#	Name: ASD02500071
#	Creating user name:	WinNT
#	Creation time:	15. 06. 2019 20:22

#	Modifying user name:	WinNT
#	Modification time:	15. 06. 2019 20:22

#	Program:	/corina/corina34_cracker 3.40 0067  02.08.2006

@<TRIPOS>MOLECULE
ASD02500071
  66   70    0    0    0
SMALL
NO_CHARGES


@<TRIPOS>ATOM
   1 C1            -1.5803     0.0978     1.1000 C.2     
   2 C2            -1.7181    -1.3750     1.3883 C.3     
   3 C3            -2.1736    -2.1022     0.1216 C.3     
   4 O4            -1.8217     0.5222    -0.0052 O.2     
   5 O5            -1.1947     0.9391     2.0728 O.3     
   6 C6             0.2772     2.7894     1.7641 C.ar    
   7 C7            -0.9956     2.2374     1.7228 C.ar    
   8 C8            -2.0636     3.0292     1.3185 C.ar    
   9 C9            -1.8094     4.3526     0.9695 C.ar    
  10 C10           -0.5067     4.8305     1.0374 C.ar    
  11 N11            0.4797     4.0472     1.4260 N.ar    
  12 N12           -2.8498     5.1885     0.5562 N.3     
  13 C13           -2.3507     6.5334     0.2401 C.3     
  14 C14           -3.4817     7.3621    -0.3782 C.3     
  15 N15           -4.6380     7.3254     0.5299 N.am    
  16 C16           -5.1117     6.0151     1.0008 C.3     
  17 C17           -3.9165     5.2394     1.5648 C.3     
  18 C18           -5.2472     8.4624     0.9205 C.2     
  19 C19           -6.4764     8.3988     1.7338 C.ar    
  20 C20           -6.7340     9.3835     2.6920 C.ar    
  21 C21           -7.8814     9.3214     3.4491 C.ar    
  22 C22           -8.7853     8.2793     3.2614 C.ar    
  23 C23           -8.5314     7.2969     2.3082 C.ar    
  24 C24           -7.3888     7.3569     1.5437 C.ar    
  25 O25           -4.7837     9.5407     0.6027 O.2     
  26 S26          -11.3992     7.8995     3.3054 S.o2    
  27 O27          -11.1944     6.7640     2.4760 O.2     
  28 O28          -12.3770     7.9433     4.3356 O.2     
  29 N29           -9.9439     8.2193     4.0280 N.am    
  30 N30          -11.8973    10.7627     4.0655 N.ar    
  31 C31          -12.0912    11.9615     4.5591 C.ar    
  32 C32          -12.3740    13.0540     3.7420 C.ar    
  33 C33          -12.4548    12.8902     2.3885 C.ar    
  34 C34          -12.2455    11.6015     1.8619 C.ar    
  35 C35          -12.3130    11.3560     0.4813 C.ar    
  36 C36          -12.1049    10.0951     0.0110 C.ar    
  37 C37          -11.8248     9.0445     0.8821 C.ar    
  38 C38          -11.7528     9.2466     2.2261 C.ar    
  39 C39          -11.9621    10.5341     2.7499 C.ar    
  40 H40           -0.7560    -1.7737     1.7101 H       
  41 H41           -2.4552    -1.5233     2.1775 H       
  42 H42           -3.1356    -1.7034    -0.2002 H       
  43 H43           -1.4365    -1.9538    -0.6675 H       
  44 H44           -2.2732    -3.1674     0.3301 H       
  45 H45            1.1118     2.1818     2.0815 H       
  46 H46           -3.0654     2.6279     1.2759 H       
  47 H47           -0.2997     5.8557     0.7682 H       
  48 H48           -2.0033     7.0164     1.1534 H       
  49 H49           -1.5258     6.4581    -0.4684 H       
  50 H50           -3.1513     8.3926    -0.5089 H       
  51 H51           -3.7604     6.9389    -1.3432 H       
  52 H52           -5.8590     6.1549     1.7819 H       
  53 H53           -5.5471     5.4623     0.1684 H       
  54 H54           -4.2273     4.2255     1.8171 H       
  55 H55           -3.5473     5.7403     2.4597 H       
  56 H56           -6.0330    10.1920     2.8383 H       
  57 H57           -8.0808    10.0816     4.1898 H       
  58 H58           -9.2342     6.4894     2.1655 H       
  59 H59           -7.1949     6.5973     0.8009 H       
  60 H60           -9.8997     8.3648     4.9860 H       
  61 H61          -12.0305    12.1060     5.6277 H       
  62 H62          -12.5296    14.0296     4.1785 H       
  63 H63          -12.6734    13.7259     1.7403 H       
  64 H64          -12.5290    12.1624    -0.2039 H       
  65 H65          -12.1570     9.9071    -1.0512 H       
  66 H66          -11.6643     8.0532     0.4846 H       
@<TRIPOS>BOND
   1    1    2 1
   2    1    4 2
   3    1    5 1
   4    2    3 1
   5    2   40 1
   6    2   41 1
   7    3   42 1
   8    3   43 1
   9    3   44 1
  10    5    7 1
  11    6    7 ar
  12    6   11 ar
  13    6   45 1
  14    7    8 ar
  15    8    9 ar
  16    8   46 1
  17    9   10 ar
  18    9   12 1
  19   10   11 ar
  20   10   47 1
  21   12   13 1
  22   12   17 1
  23   13   14 1
  24   13   48 1
  25   13   49 1
  26   14   15 1
  27   14   50 1
  28   14   51 1
  29   15   16 1
  30   15   18 am
  31   16   17 1
  32   16   52 1
  33   16   53 1
  34   17   54 1
  35   17   55 1
  36   18   19 1
  37   18   25 2
  38   19   20 ar
  39   19   24 ar
  40   20   21 ar
  41   20   56 1
  42   21   22 ar
  43   21   57 1
  44   22   23 ar
  45   22   29 1
  46   23   24 ar
  47   23   58 1
  48   24   59 1
  49   26   27 2
  50   26   28 2
  51   26   29 am
  52   26   38 1
  53   29   60 1
  54   30   31 ar
  55   30   39 ar
  56   31   32 ar
  57   31   61 1
  58   32   33 ar
  59   32   62 1
  60   33   34 ar
  61   33   63 1
  62   34   35 ar
  63   34   39 ar
  64   35   36 ar
  65   35   64 1
  66   36   37 ar
  67   36   65 1
  68   37   38 ar
  69   37   66 1
  70   38   39 ar

#	End of record

