#	Name: ASD00069210
#	Creating user name:	WinNT
#	Creation time:	15. 06. 2019 18:29

#	Modifying user name:	WinNT
#	Modification time:	15. 06. 2019 18:29

#	Program:	/corina/corina34_cracker 3.40 0067  02.08.2006

@<TRIPOS>MOLECULE
ASD00069210
  87   92    0    0    0
SMALL
NO_CHARGES


@<TRIPOS>ATOM
   1 N1            -0.6795     1.1900     0.2392 N.3     
   2 C2            -0.5866    -0.2756     0.2385 C.3     
   3 C3             0.0376    -0.7478    -1.0766 C.3     
   4 C4             1.4304    -0.1295    -1.2258 C.3     
   5 C5             1.3111     1.3962    -1.1734 C.3     
   6 C6             0.6500     1.8063     0.1445 C.3     
   7 C7             0.1526    -2.2504    -1.0679 C.2     
   8 O8            -0.2273    -2.8821    -0.1048 O.2     
   9 N9             0.6775    -2.8923    -2.1304 N.am    
  10 C10            0.5105     3.3292     0.1925 C.3     
  11 C11           -3.0892     2.8556     2.2915 C.ar    
  12 N12           -2.4332     2.4171     1.2272 N.ar    
  13 C13           -1.3589     1.6440     1.3585 C.ar    
  14 C14           -0.9256     1.2962     2.6368 C.ar    
  15 C15           -1.6408     1.7761     3.7318 C.ar    
  16 N16           -2.7086     2.5469     3.5209 N.ar    
  17 N17           -4.1992     3.6628     2.1130 N.pl3   
  18 C18           -4.9391     4.1585     3.2761 C.3     
  19 C19           -0.1094     0.5909     6.7618 C.2     
  20 N20           -0.1720     0.6744     5.4523 N.2     
  21 C21           -1.2209     1.4349     5.1120 C.2     
  22 C22           -1.8399     1.8434     6.2728 C.2     
  23 N23           -1.1397     1.3121     7.2988 N.pl3   
  24 C24            0.9018    -0.1619     7.5267 C.2     
  25 N25            1.8690    -0.8410     6.8788 N.am    
  26 O26            0.8630    -0.1700     8.7423 O.2     
  27 C27            2.8901    -1.4679     7.6037 C.ar    
  28 C28            3.4689    -2.6419     7.1234 C.ar    
  29 C29            4.4809    -3.2584     7.8472 C.ar    
  30 C30            4.9114    -2.7066     9.0414 C.ar    
  31 C31            4.3363    -1.5423     9.5164 C.ar    
  32 C32            3.3323    -0.9194     8.7988 C.ar    
  33 O33            2.9650    -5.1224     3.8703 O.3     
  34 C34            1.8811    -5.0491     4.8005 C.3     
  35 C35            2.3973    -4.5061     6.1356 C.3     
  36 N36            3.0307    -3.1979     5.9147 N.3     
  37 C37            4.1381    -3.3108     4.9545 C.3     
  38 C38            3.6045    -3.8657     3.6312 C.3     
  39 F39            5.0447    -4.3963     7.3863 F       
  40 C40            0.7893    -4.3530    -2.1220 C.3     
  41 C41            0.8033    -4.8717    -3.5613 C.3     
  42 C42            0.9200    -6.3972    -3.5524 C.3     
  43 C43            2.2168    -6.8055    -2.8505 C.3     
  44 C44            2.2027    -6.2867    -1.4112 C.3     
  45 C45            2.0860    -4.7612    -1.4200 C.3     
  46 H46            0.0349    -0.6005     1.0728 H       
  47 H47           -1.5842    -0.7027     0.3410 H       
  48 H48           -0.5907    -0.4352    -1.9106 H       
  49 H49            2.0705    -0.4729    -0.4131 H       
  50 H50            1.8613    -0.4285    -2.1814 H       
  51 H51            2.3042     1.8412    -1.2363 H       
  52 H52            0.7029     1.7426    -2.0089 H       
  53 H53            1.2658     1.4716     0.9793 H       
  54 H54            0.9814    -2.3871    -2.9007 H       
  55 H55            0.0404     3.6215     1.1315 H       
  56 H56            1.4972     3.7868     0.1222 H       
  57 H57           -0.1056     3.6641    -0.6419 H       
  58 H58           -0.0568     0.6697     2.7750 H       
  59 H59           -4.4872     3.9003     1.2177 H       
  60 H60           -4.2759     4.7571     3.9005 H       
  61 H61           -5.7746     4.7728     2.9404 H       
  62 H62           -5.3174     3.3145     3.8528 H       
  63 H63           -2.7172     2.4688     6.3483 H       
  64 H64           -1.3327     1.4216     8.2431 H       
  65 H65            1.8579    -0.8955     5.9104 H       
  66 H66            5.6984    -3.1869     9.6040 H       
  67 H67            4.6754    -1.1159    10.4489 H       
  68 H68            2.8890    -0.0076     9.1708 H       
  69 H69            1.1110    -4.3837     4.4102 H       
  70 H70            1.4618    -6.0440     4.9499 H       
  71 H71            1.5643    -4.3946     6.8297 H       
  72 H72            3.1286    -5.1989     6.5520 H       
  73 H73            4.5758    -2.3268     4.7864 H       
  74 H74            4.8973    -3.9844     5.3520 H       
  75 H75            4.4315    -4.0049     2.9349 H       
  76 H76            2.8845    -3.1659     3.2069 H       
  77 H77           -0.0614    -4.7794    -1.5904 H       
  78 H78           -0.1205    -4.5809    -4.0613 H       
  79 H79            1.6540    -4.4453    -4.0929 H       
  80 H80            0.0694    -6.8237    -3.0208 H       
  81 H81            0.9301    -6.7668    -4.5778 H       
  82 H82            2.2999    -7.8923    -2.8442 H       
  83 H83            3.0675    -6.3791    -3.3821 H       
  84 H84            1.3520    -6.7131    -0.8796 H       
  85 H85            3.1265    -6.5776    -0.9111 H       
  86 H86            2.9367    -4.3348    -1.9516 H       
  87 H87            2.0760    -4.3917    -0.3946 H       
@<TRIPOS>BOND
   1    1    2 1
   2    1    6 1
   3    1   13 1
   4    2    3 1
   5    2   46 1
   6    2   47 1
   7    3    4 1
   8    3    7 1
   9    3   48 1
  10    4    5 1
  11    4   49 1
  12    4   50 1
  13    5    6 1
  14    5   51 1
  15    5   52 1
  16    6   10 1
  17    6   53 1
  18    7    8 2
  19    7    9 am
  20    9   40 1
  21    9   54 1
  22   10   55 1
  23   10   56 1
  24   10   57 1
  25   11   12 ar
  26   11   16 ar
  27   11   17 1
  28   12   13 ar
  29   13   14 ar
  30   14   15 ar
  31   14   58 1
  32   15   16 ar
  33   15   21 1
  34   17   18 1
  35   17   59 1
  36   18   60 1
  37   18   61 1
  38   18   62 1
  39   19   20 2
  40   19   23 1
  41   19   24 1
  42   20   21 1
  43   21   22 2
  44   22   23 1
  45   22   63 1
  46   23   64 1
  47   24   25 am
  48   24   26 2
  49   25   27 1
  50   25   65 1
  51   27   28 ar
  52   27   32 ar
  53   28   29 ar
  54   28   36 1
  55   29   30 ar
  56   29   39 1
  57   30   31 ar
  58   30   66 1
  59   31   32 ar
  60   31   67 1
  61   32   68 1
  62   33   34 1
  63   33   38 1
  64   34   35 1
  65   34   69 1
  66   34   70 1
  67   35   36 1
  68   35   71 1
  69   35   72 1
  70   36   37 1
  71   37   38 1
  72   37   73 1
  73   37   74 1
  74   38   75 1
  75   38   76 1
  76   40   41 1
  77   40   45 1
  78   40   77 1
  79   41   42 1
  80   41   78 1
  81   41   79 1
  82   42   43 1
  83   42   80 1
  84   42   81 1
  85   43   44 1
  86   43   82 1
  87   43   83 1
  88   44   45 1
  89   44   84 1
  90   44   85 1
  91   45   86 1
  92   45   87 1

#	End of record

