#	Name: ASD02198783
#	Creating user name:	WinNT
#	Creation time:	15. 06. 2019 20:20

#	Modifying user name:	WinNT
#	Modification time:	15. 06. 2019 20:20

#	Program:	/corina/corina34_cracker 3.40 0067  02.08.2006

@<TRIPOS>MOLECULE
ASD02198783
  49   53    0    0    0
SMALL
NO_CHARGES


@<TRIPOS>ATOM
   1 F1             2.8086    -1.1594     2.9992 F       
   2 C2             0.2369     1.5453     0.1077 C.2     
   3 C3             0.2823     0.2508     0.5117 C.2     
   4 N4             1.4658    -0.3722     0.7103 N.pl3   
   5 N5             2.6000     0.1989     0.5359 N.2     
   6 C6             2.6992     1.4515     0.1451 C.2     
   7 C7             1.4659     2.2170    -0.0978 C.2     
   8 C8             1.4517    -1.7074     1.1278 C.ar    
   9 C9             2.1326    -2.0833     2.2817 C.ar    
  10 C10            2.1173    -3.4027     2.6929 C.ar    
  11 C11            1.4227    -4.3516     1.9546 C.ar    
  12 C12            0.7431    -3.9755     0.8028 C.ar    
  13 C13            0.7530    -2.6578     0.3936 C.ar    
  14 C14            4.0232     2.0777    -0.0453 C.2     
  15 N15            4.4790     2.6835    -1.1824 N.pl3   
  16 N16            5.7790     3.1396    -0.9311 N.2     
  17 C17            6.1038     2.8289     0.2986 C.2     
  18 C18            5.0292     2.1663     0.8918 C.2     
  19 C19            3.7725     2.8231    -2.3838 C.ar    
  20 C20            3.8075     4.0266    -3.0757 C.ar    
  21 C21            3.1098     4.1612    -4.2600 C.ar    
  22 C22            2.3769     3.0990    -4.7569 C.ar    
  23 C23            2.3396     1.8994    -4.0700 C.ar    
  24 C24            3.0402     1.7566    -2.8883 C.ar    
  25 O25            1.5013     3.3829    -0.4622 O.2     
  26 N26            1.4075    -5.6897     2.3714 N.pl3   
  27 N27            1.4571    -6.8144     1.5379 N.2     
  28 C28            1.4230    -7.8860     2.2883 C.2     
  29 C29            1.3505    -7.4869     3.6265 C.2     
  30 C30            1.3479    -6.1276     3.6573 C.2     
  31 O31            1.2875    -5.3499     4.7683 O.3     
  32 C32            1.3337    -6.0175     6.0309 C.3     
  33 H33           -0.7061     2.0455    -0.0560 H       
  34 H34           -0.6385    -0.2887     0.6769 H       
  35 H35            2.6457    -3.6957     3.5881 H       
  36 H36            0.2032    -4.7144     0.2293 H       
  37 H37            0.2241    -2.3665    -0.5018 H       
  38 H38            7.0466     3.0518     0.7758 H       
  39 H39            4.9945     1.7856     1.9018 H       
  40 H40            4.3795     4.8566    -2.6880 H       
  41 H41            3.1364     5.0970    -4.7985 H       
  42 H42            1.8322     3.2067    -5.6832 H       
  43 H43            1.7657     1.0719    -4.4603 H       
  44 H44            3.0107     0.8194    -2.3523 H       
  45 H45            1.4468    -8.9060     1.9340 H       
  46 H46            1.3087    -8.1422     4.4839 H       
  47 H47            1.1934    -5.2911     6.8314 H       
  48 H48            0.5417    -6.7651     6.0758 H       
  49 H49            2.3011    -6.5056     6.1486 H       
@<TRIPOS>BOND
   1    1    9 1
   2    2    3 2
   3    2    7 1
   4    2   33 1
   5    3    4 1
   6    3   34 1
   7    4    5 1
   8    4    8 1
   9    5    6 2
  10    6    7 1
  11    6   14 1
  12    7   25 2
  13    8    9 ar
  14    8   13 ar
  15    9   10 ar
  16   10   11 ar
  17   10   35 1
  18   11   12 ar
  19   11   26 1
  20   12   13 ar
  21   12   36 1
  22   13   37 1
  23   14   15 1
  24   14   18 2
  25   15   16 1
  26   15   19 1
  27   16   17 2
  28   17   18 1
  29   17   38 1
  30   18   39 1
  31   19   20 ar
  32   19   24 ar
  33   20   21 ar
  34   20   40 1
  35   21   22 ar
  36   21   41 1
  37   22   23 ar
  38   22   42 1
  39   23   24 ar
  40   23   43 1
  41   24   44 1
  42   26   27 1
  43   26   30 1
  44   27   28 2
  45   28   29 1
  46   28   45 1
  47   29   30 2
  48   29   46 1
  49   30   31 1
  50   31   32 1
  51   32   47 1
  52   32   48 1
  53   32   49 1

#	End of record

