#	Name: ASD01040002
#	Creating user name:	WinNT
#	Creation time:	15. 06. 2019 18:58

#	Modifying user name:	WinNT
#	Modification time:	15. 06. 2019 18:58

#	Program:	/corina/corina34_cracker 3.40 0067  02.08.2006

@<TRIPOS>MOLECULE
ASD01040002
  51   54    0    0    0
SMALL
NO_CHARGES


@<TRIPOS>ATOM
   1 C1            -0.2025     1.3536    -0.1270 C.ar    
   2 C2            -0.8405     1.2009    -1.3566 C.ar    
   3 C3            -2.0525     0.5465    -1.4266 C.ar    
   4 C4            -2.6373     0.0405    -0.2738 C.ar    
   5 C5            -2.0044     0.1914     0.9526 C.ar    
   6 C6            -0.7893     0.8394     1.0279 C.ar    
   7 C7             1.1018     2.0567    -0.0484 C.2     
   8 C8             1.4360     3.2473    -0.7159 C.2     
   9 C9             2.7206     3.5655    -0.3828 C.2     
  10 N10            3.1757     2.5997     0.4696 N.pl3   
  11 N11            2.1423     1.6744     0.6636 N.2     
  12 C12            4.4497     2.5465     1.0505 C.ar    
  13 C13            4.6057     2.0522     2.3389 C.ar    
  14 C14            5.8613     1.9997     2.9105 C.ar    
  15 C15            6.9671     2.4411     2.1982 C.ar    
  16 C16            6.8120     2.9351     0.9109 C.ar    
  17 C17            5.5578     2.9829     0.3360 C.ar    
  18 C18            3.4816     4.7415    -0.8582 C.ar    
  19 C19            4.2312     5.5002     0.0418 C.ar    
  20 C20            4.9391     6.5956    -0.4051 C.ar    
  21 C21            4.9065     6.9445    -1.7487 C.ar    
  22 C22            4.1618     6.1921    -2.6472 C.ar    
  23 C23            3.4563     5.0917    -2.2089 C.ar    
  24 C24            0.5367     4.0322    -1.6357 C.3     
  25 C25           -0.3433     4.9719    -0.8090 C.3     
  26 C26           -1.2446     5.7808    -1.7440 C.3     
  27 O27            5.6047     8.0253    -2.1853 O.3     
  28 O28            8.2031     2.3900     2.7620 O.3     
  29 O29           -3.8317    -0.6034    -0.3457 O.3     
  30 H30           -0.3863     1.5950    -2.2538 H       
  31 H31           -2.5473     0.4280    -2.3793 H       
  32 H32           -2.4620    -0.2027     1.8479 H       
  33 H33           -0.2972     0.9563     1.9822 H       
  34 H34            3.7449     1.7092     2.8937 H       
  35 H35            5.9827     1.6153     3.9124 H       
  36 H36            7.6732     3.2789     0.3572 H       
  37 H37            5.4372     3.3674    -0.6660 H       
  38 H38            4.2564     5.2298     1.0871 H       
  39 H39            5.5194     7.1832     0.2908 H       
  40 H40            4.1388     6.4665    -3.6915 H       
  41 H41            2.8775     4.5067    -2.9083 H       
  42 H42            1.1445     4.6171    -2.3261 H       
  43 H43           -0.0946     3.3455    -2.1997 H       
  44 H44           -0.9597     4.3862    -0.1270 H       
  45 H45            0.2882     5.6507    -0.2359 H       
  46 H46           -1.8761     5.1020    -2.3171 H       
  47 H47           -1.8715     6.4503    -1.1551 H       
  48 H48           -0.6282     6.3665    -2.4260 H       
  49 H49            6.5090     7.8237    -2.4623 H       
  50 H50            8.6755     1.5620     2.5995 H       
  51 H51           -3.7566    -1.5567    -0.4897 H       
@<TRIPOS>BOND
   1    1    2 ar
   2    1    7 1
   3    1    6 ar
   4    2    3 ar
   5    2   30 1
   6    3    4 ar
   7    3   31 1
   8    4    5 ar
   9    4   29 1
  10    5    6 ar
  11    5   32 1
  12    6   33 1
  13    7    8 1
  14    7   11 2
  15    8    9 2
  16    8   24 1
  17    9   10 1
  18    9   18 1
  19   10   11 1
  20   10   12 1
  21   12   13 ar
  22   12   17 ar
  23   13   14 ar
  24   13   34 1
  25   14   15 ar
  26   14   35 1
  27   15   16 ar
  28   15   28 1
  29   16   17 ar
  30   16   36 1
  31   17   37 1
  32   18   19 ar
  33   18   23 ar
  34   19   20 ar
  35   19   38 1
  36   20   21 ar
  37   20   39 1
  38   21   22 ar
  39   21   27 1
  40   22   23 ar
  41   22   40 1
  42   23   41 1
  43   24   25 1
  44   24   42 1
  45   24   43 1
  46   25   26 1
  47   25   44 1
  48   25   45 1
  49   26   46 1
  50   26   47 1
  51   26   48 1
  52   27   49 1
  53   28   50 1
  54   29   51 1

#	End of record

