#	Name: ASD08070075
#	Creating user name:	WinNT
#	Creation time:	15. 06. 2019 21:14

#	Modifying user name:	WinNT
#	Modification time:	15. 06. 2019 21:14

#	Program:	/corina/corina34_cracker 3.40 0067  02.08.2006

@<TRIPOS>MOLECULE
ASD08070075
  47   47    0    0    0
SMALL
NO_CHARGES


@<TRIPOS>ATOM
   1 C1             0.6669     1.2346     0.5139 C.ar    
   2 C2             0.5308    -0.1302     0.3889 C.ar    
   3 C3             1.9321     1.8091     0.5395 C.ar    
   4 C4             3.0649     1.0095     0.4388 C.ar    
   5 C5             2.9372    -0.3556     0.3132 C.ar    
   6 C6             1.6667    -0.9373     0.2879 C.ar    
   7 C7             1.5253    -2.4004     0.1539 C.2     
   8 O8             2.5149    -3.1012     0.0653 O.2     
   9 C9             0.2022    -4.7948    -1.4839 C.3     
  10 C10            0.1589    -4.4117    -0.0033 C.3     
  11 N11            0.2992    -2.9595     0.1297 N.am    
  12 C12           -1.1770    -4.8523     0.5986 C.3     
  13 C13           -1.1782    -4.5662     2.1017 C.3     
  14 O14            2.0621     3.1543     0.6627 O.3     
  15 C15           -2.5623    -4.8713     2.6778 C.3     
  16 C16            0.8572     3.9162     0.7610 C.3     
  17 C17            1.2020     5.4011     0.8925 C.3     
  18 C18            4.4344     1.6378     0.4666 C.3     
  19 C19            1.5833    -4.4676    -2.0552 C.3     
  20 C20           -0.1338    -5.4477     2.7895 C.3     
  21 H21           -0.2108     1.8596     0.5875 H       
  22 H22           -0.4528    -0.5759     0.3694 H       
  23 H23            3.8176    -0.9761     0.2343 H       
  24 H24            0.0092    -5.8625    -1.5888 H       
  25 H25           -0.5580    -4.2332    -2.0269 H       
  26 H26            0.9753    -4.9054     0.5238 H       
  27 H27           -0.4903    -2.4004     0.2004 H       
  28 H28           -1.9888    -4.3017     0.1233 H       
  29 H29           -1.3159    -5.9204     0.4320 H       
  30 H30           -0.9369    -3.5169     2.2720 H       
  31 H31           -2.8410    -5.8956     2.4306 H       
  32 H32           -2.5393    -4.7523     3.7610 H       
  33 H33           -3.2928    -4.1832     2.2522 H       
  34 H34            0.2551     3.7610    -0.1342 H       
  35 H35            0.2946     3.5949     1.6375 H       
  36 H36            0.2829     5.9822     0.9675 H       
  37 H37            1.8041     5.5563     1.7877 H       
  38 H38            1.7646     5.7224     0.0160 H       
  39 H39            4.7878     1.6933     1.4962 H       
  40 H40            5.1238     1.0326    -0.1220 H       
  41 H41            4.3821     2.6419     0.0458 H       
  42 H42            1.6141    -4.7405    -3.1100 H       
  43 H43            1.7762    -3.4000    -1.9503 H       
  44 H44            2.3434    -5.0293    -1.5122 H       
  45 H45            0.8523    -5.2304     2.3790 H       
  46 H46           -0.1347    -5.2439     3.8602 H       
  47 H47           -0.3751    -6.4970     2.6191 H       
@<TRIPOS>BOND
   1    1    2 ar
   2    1    3 ar
   3    1   21 1
   4    2    6 ar
   5    2   22 1
   6    3    4 ar
   7    3   14 1
   8    4    5 ar
   9    4   18 1
  10    5    6 ar
  11    5   23 1
  12    6    7 1
  13    7    8 2
  14    7   11 am
  15    9   10 1
  16    9   19 1
  17    9   24 1
  18    9   25 1
  19   10   12 1
  20   10   11 1
  21   10   26 1
  22   11   27 1
  23   12   13 1
  24   12   28 1
  25   12   29 1
  26   13   15 1
  27   13   20 1
  28   13   30 1
  29   14   16 1
  30   15   31 1
  31   15   32 1
  32   15   33 1
  33   16   17 1
  34   16   34 1
  35   16   35 1
  36   17   36 1
  37   17   37 1
  38   17   38 1
  39   18   39 1
  40   18   40 1
  41   18   41 1
  42   19   42 1
  43   19   43 1
  44   19   44 1
  45   20   45 1
  46   20   46 1
  47   20   47 1

#	End of record

