#	Name: ASD02508096
#	Creating user name:	WinNT
#	Creation time:	15. 06. 2019 20:23

#	Modifying user name:	WinNT
#	Modification time:	15. 06. 2019 20:23

#	Program:	/corina/corina34_cracker 3.40 0067  02.08.2006

@<TRIPOS>MOLECULE
ASD02508096
  37   39    0    0    0
SMALL
NO_CHARGES


@<TRIPOS>ATOM
   1 C1             0.9946     2.2714    -0.0994 C.ar    
   2 C2             0.6474     0.9169     0.0157 C.ar    
   3 C3             2.3503     2.5859    -0.2040 C.ar    
   4 C4             3.3245     1.6046    -0.1955 C.ar    
   5 C5             2.9604     0.2705    -0.0808 C.ar    
   6 C6             1.6143    -0.0604     0.0248 C.ar    
   7 N7             0.1480     3.3682    -0.1292 N.am    
   8 C8             0.6837     4.5870    -0.2453 C.2     
   9 S9             2.4368     4.3482    -0.3313 S.3     
  10 N10            3.9375    -0.7308    -0.0716 N.am    
  11 S11            3.8686    -1.9446     1.0528 S.o2    
  12 C12            4.0527    -1.1981     2.6381 C.ar    
  13 C13            2.9321    -0.8983     3.3988 C.ar    
  14 O14            0.0871     5.6472    -0.2866 O.2     
  15 O15            2.5461    -2.4621     1.0040 O.2     
  16 O16            5.0246    -2.7457     0.8498 O.2     
  17 C17           -1.3037     3.1951    -0.0361 C.3     
  18 C18            5.3151    -0.9154     3.1281 C.ar    
  19 C19            5.4590    -0.3288     4.3747 C.ar    
  20 C20            4.3425    -0.0249     5.1304 C.ar    
  21 C21            3.0801    -0.3105     4.6467 C.ar    
  22 F22            6.4078    -1.2117     2.3909 F       
  23 O23            1.6910    -1.1797     2.9221 O.3     
  24 C24            0.5829    -0.8437     3.7595 C.3     
  25 H25           -0.3928     0.6385     0.0985 H       
  26 H26            4.3666     1.8759    -0.2783 H       
  27 H27            1.3248    -1.0970     0.1143 H       
  28 H28            4.6553    -0.7141    -0.7239 H       
  29 H29           -1.6067     3.2241     1.0106 H       
  30 H30           -1.8010     3.9977    -0.5806 H       
  31 H31           -1.5837     2.2346    -0.4688 H       
  32 H32            6.4450    -0.1091     4.7568 H       
  33 H33            4.4570     0.4324     6.1021 H       
  34 H34            2.2084    -0.0724     5.2382 H       
  35 H35            0.6636    -1.3836     4.7029 H       
  36 H36            0.5859     0.2289     3.9532 H       
  37 H37           -0.3462    -1.1202     3.2610 H       
@<TRIPOS>BOND
   1    1    2 ar
   2    1    3 ar
   3    1    7 1
   4    2    6 ar
   5    2   25 1
   6    3    4 ar
   7    3    9 1
   8    4    5 ar
   9    4   26 1
  10    5    6 ar
  11    5   10 1
  12    6   27 1
  13    7    8 am
  14    7   17 1
  15    8    9 1
  16    8   14 2
  17   10   11 am
  18   10   28 1
  19   11   12 1
  20   11   15 2
  21   11   16 2
  22   12   13 ar
  23   12   18 ar
  24   13   23 1
  25   13   21 ar
  26   17   29 1
  27   17   30 1
  28   17   31 1
  29   18   19 ar
  30   18   22 1
  31   19   20 ar
  32   19   32 1
  33   20   21 ar
  34   20   33 1
  35   21   34 1
  36   23   24 1
  37   24   35 1
  38   24   36 1
  39   24   37 1

#	End of record

