#	Name: ASD03430052
#	Creating user name:	WinNT
#	Creation time:	15. 06. 2019 20:40

#	Modifying user name:	WinNT
#	Modification time:	15. 06. 2019 20:40

#	Program:	/corina/corina34_cracker 3.40 0067  02.08.2006

@<TRIPOS>MOLECULE
ASD03430052
  53   58    0    0    0
SMALL
NO_CHARGES


@<TRIPOS>ATOM
   1 C1             1.8590     1.2939    -1.0473 C.ar    
   2 C2             1.2927     0.0570    -0.7795 C.ar    
   3 C3             2.0882    -1.0001    -0.3910 C.ar    
   4 C4             3.4634    -0.8390    -0.2523 C.ar    
   5 C5             4.0287     0.4024    -0.5255 C.ar    
   6 C6             3.2325     1.4647    -0.9199 C.ar    
   7 O7             4.0566    -1.9937     0.1662 O.3     
   8 C8             1.7891    -2.4375    -0.0586 C.3     
   9 C9             3.1722    -3.1016    -0.0898 C.3     
  10 C10           -0.0770    -3.2440     1.0312 C.ar    
  11 C11            1.1252    -2.5871     1.2779 C.ar    
  12 C12            0.8458    -3.0660    -1.0438 C.2     
  13 N13           -0.2103    -3.5106    -0.3339 N.am    
  14 O14            1.0032    -3.1556    -2.2431 O.2     
  15 C15            1.4735    -2.2200     2.5636 C.ar    
  16 C16            0.6207    -2.5070     3.6221 C.ar    
  17 C17           -0.5736    -3.1595     3.3834 C.ar    
  18 C18           -0.9242    -3.5263     2.1001 C.ar    
  19 C19           -1.3639    -4.1934    -0.9249 C.3     
  20 O20            1.0603     2.3253    -1.4378 O.3     
  21 C21            1.6162     3.6414    -1.3431 C.3     
  22 C22            3.0330     3.6072    -1.9325 C.3     
  23 O23            3.8090     2.6711    -1.1773 O.3     
  24 O24            2.6496    -1.5792     2.7926 O.3     
  25 C25            3.0024    -1.3342     4.0826 C.ar    
  26 C26            3.7280    -2.2782     4.7945 C.ar    
  27 C27            2.6417    -0.1378     4.6851 C.ar    
  28 C28            3.0006     0.1112     5.9954 C.ar    
  29 C29            3.7215    -0.8350     6.7089 C.ar    
  30 C30            4.0867    -2.0290     6.1048 C.ar    
  31 O31            4.0752    -0.5896     7.9987 O.3     
  32 C32            4.8169    -1.6080     8.6731 C.3     
  33 H33            0.2256    -0.0788    -0.8751 H       
  34 H34            5.0957     0.5388    -0.4290 H       
  35 H35            3.3705    -3.5368    -1.0693 H       
  36 H36            3.2579    -3.8544     0.6938 H       
  37 H37            0.8905    -2.2214     4.6281 H       
  38 H38           -1.2367    -3.3835     4.2059 H       
  39 H39           -1.8603    -4.0352     1.9238 H       
  40 H40           -2.1187    -3.4576    -1.2025 H       
  41 H41           -1.0466    -4.7410    -1.8124 H       
  42 H42           -1.7848    -4.8897    -0.1995 H       
  43 H43            1.0002     4.3421    -1.9068 H       
  44 H44            1.6600     3.9477    -0.2980 H       
  45 H45            2.9902     3.2920    -2.9751 H       
  46 H46            3.4833     4.5975    -1.8653 H       
  47 H47            4.0120    -3.2080     4.3244 H       
  48 H48            2.0807     0.5990     4.1295 H       
  49 H49            2.7201     1.0427     6.4644 H       
  50 H50            4.6478    -2.7658     6.6605 H       
  51 H51            4.2311    -2.5268     8.6997 H       
  52 H52            5.7517    -1.7884     8.1423 H       
  53 H53            5.0336    -1.2856     9.6915 H       
@<TRIPOS>BOND
   1    1    2 ar
   2    1    6 ar
   3    1   20 1
   4    2    3 ar
   5    2   33 1
   6    3    4 ar
   7    3    8 1
   8    4    5 ar
   9    4    7 1
  10    5    6 ar
  11    5   34 1
  12    6   23 1
  13    7    9 1
  14    8    9 1
  15    8   11 1
  16    8   12 1
  17    9   35 1
  18    9   36 1
  19   10   11 ar
  20   10   13 1
  21   10   18 ar
  22   11   15 ar
  23   12   13 am
  24   12   14 2
  25   13   19 1
  26   15   16 ar
  27   15   24 1
  28   16   17 ar
  29   16   37 1
  30   17   18 ar
  31   17   38 1
  32   18   39 1
  33   19   40 1
  34   19   41 1
  35   19   42 1
  36   20   21 1
  37   21   22 1
  38   21   43 1
  39   21   44 1
  40   22   23 1
  41   22   45 1
  42   22   46 1
  43   24   25 1
  44   25   27 ar
  45   25   26 ar
  46   26   30 ar
  47   26   47 1
  48   27   28 ar
  49   27   48 1
  50   28   29 ar
  51   28   49 1
  52   29   30 ar
  53   29   31 1
  54   30   50 1
  55   31   32 1
  56   32   51 1
  57   32   52 1
  58   32   53 1

#	End of record

