#	Name: ASD03092087
#	Creating user name:	WinNT
#	Creation time:	15. 06. 2019 20:31

#	Modifying user name:	WinNT
#	Modification time:	15. 06. 2019 20:31

#	Program:	/corina/corina34_cracker 3.40 0067  02.08.2006

@<TRIPOS>MOLECULE
ASD03092087
  50   52    0    0    0
SMALL
NO_CHARGES


@<TRIPOS>ATOM
   1 N1             0.4547     1.8735     1.2185 N.am    
   2 C2             0.4248     0.5056     1.1363 C.2     
   3 C3            -0.8733     0.1381     0.9398 C.2     
   4 C4            -1.6498     1.3074     0.9015 C.2     
   5 N5            -0.8581     2.3396     1.0729 N.2     
   6 N6            -3.0340     1.3623     0.7170 N.pl3   
   7 C7            -3.6908     2.5953     0.7200 C.ar    
   8 C8            -4.9900     2.6904     1.2034 C.ar    
   9 C9            -5.6392     3.9098     1.2063 C.ar    
  10 C10           -4.9991     5.0375     0.7288 C.ar    
  11 C11           -3.0442     3.7286     0.2452 C.ar    
  12 C12            1.5862    -0.4038     1.2411 C.ar    
  13 C13            1.5508     2.6339     1.4108 C.2     
  14 C14            2.4358    -0.3603     2.3523 C.ar    
  15 C15            3.5076    -1.2269     2.4089 C.ar    
  16 N16            3.7360    -2.0866     1.4345 N.ar    
  17 C17            2.9601    -2.1606     0.3697 C.ar    
  18 C18            1.8630    -1.3361     0.2341 C.ar    
  19 C19            3.2736    -3.1641    -0.7100 C.3     
  20 C20           -3.7010     4.9488     0.2450 C.ar    
  21 N21            1.4558     3.9774     1.3626 N.am    
  22 C22            2.6472     4.8039     1.5717 C.3     
  23 C23            0.9830    -1.4283    -0.9858 C.3     
  24 O24            2.6246     2.1081     1.6277 O.2     
  25 O25           -3.0729     6.0589    -0.2241 O.3     
  26 C26           -1.7015     5.9182    -0.6003 C.3     
  27 C27           -7.0484     4.0103     1.7306 C.3     
  28 F28           -7.0173     4.2874     3.1016 F       
  29 F29           -7.7225     5.0381     1.0624 F       
  30 F30           -7.7138     2.7988     1.5147 F       
  31 H31           -1.2391    -0.8723     0.8323 H       
  32 H32           -3.5387     0.5442     0.5869 H       
  33 H33           -5.4927     1.8105     1.5768 H       
  34 H34           -5.5096     5.9892     0.7317 H       
  35 H35           -2.0328     3.6585    -0.1270 H       
  36 H36            2.2553     0.3413     3.1532 H       
  37 H37            4.1690    -1.2010     3.2623 H       
  38 H38            2.7618    -4.1020    -0.4940 H       
  39 H39            2.9364    -2.7795    -1.6725 H       
  40 H40            4.3493    -3.3368    -0.7443 H       
  41 H41            0.5986     4.3972     1.1895 H       
  42 H42            3.0588     4.6044     2.5611 H       
  43 H43            3.3927     4.5653     0.8131 H       
  44 H44            2.3766     5.8571     1.4964 H       
  45 H45            0.1962    -2.1622    -0.8115 H       
  46 H46            0.5345    -0.4550    -1.1846 H       
  47 H47            1.5819    -1.7344    -1.8435 H       
  48 H48           -1.3001     6.8919    -0.8813 H       
  49 H49           -1.1332     5.5198     0.2403 H       
  50 H50           -1.6250     5.2357    -1.4467 H       
@<TRIPOS>BOND
   1    1    2 1
   2    1   13 am
   3    1    5 1
   4    2    3 2
   5    2   12 1
   6    3    4 1
   7    3   31 1
   8    4    5 2
   9    4    6 1
  10    6    7 1
  11    6   32 1
  12    7    8 ar
  13    7   11 ar
  14    8    9 ar
  15    8   33 1
  16    9   10 ar
  17    9   27 1
  18   10   20 ar
  19   10   34 1
  20   11   20 ar
  21   11   35 1
  22   12   14 ar
  23   12   18 ar
  24   13   21 am
  25   13   24 2
  26   14   15 ar
  27   14   36 1
  28   15   16 ar
  29   15   37 1
  30   16   17 ar
  31   17   18 ar
  32   17   19 1
  33   18   23 1
  34   19   38 1
  35   19   39 1
  36   19   40 1
  37   20   25 1
  38   21   22 1
  39   21   41 1
  40   22   42 1
  41   22   43 1
  42   22   44 1
  43   23   45 1
  44   23   46 1
  45   23   47 1
  46   25   26 1
  47   26   48 1
  48   26   49 1
  49   26   50 1
  50   27   28 1
  51   27   29 1
  52   27   30 1

#	End of record

