#	Name: ASD07480042
#	Creating user name:	WinNT
#	Creation time:	15. 06. 2019 21:11

#	Modifying user name:	WinNT
#	Modification time:	15. 06. 2019 21:11

#	Program:	/corina/corina34_cracker 3.40 0067  02.08.2006

@<TRIPOS>MOLECULE
ASD07480042
  52   55    0    0    0
SMALL
NO_CHARGES


@<TRIPOS>ATOM
   1 C1            -0.0170     1.4053     0.0098 C.2     
   2 C2             0.0021    -0.0041     0.0020 C.2     
   3 N3             1.1573    -0.6478    -0.0125 N.2     
   4 C4             2.3106     0.0213    -0.0199 C.2     
   5 N5             2.3290     1.3868    -0.0127 N.pl3   
   6 C6             1.1537     2.0831     0.0022 C.2     
   7 C7             3.6540    -0.4021    -0.0354 C.2     
   8 C8             4.4489     0.7601    -0.0371 C.2     
   9 N9             3.6647     1.8041    -0.0237 N.2     
  10 N10           -1.1844    -0.7121     0.0100 N.pl3   
  11 C11           -1.3080    -2.1772     0.0093 C.3     
  12 C12           -0.6704    -2.7459     1.2506 C.ar    
  13 C13            0.0712    -3.9093     1.1751 C.ar    
  14 C14            0.6571    -4.4317     2.3159 C.ar    
  15 C15            0.4989    -3.7875     3.5310 C.ar    
  16 C16           -0.2434    -2.6238     3.6042 C.ar    
  17 C17           -0.8229    -2.1003     2.4637 C.ar    
  18 C18            4.1324    -1.7862    -0.0475 C.2     
  19 N19            5.4556    -2.0417    -0.0620 N.am    
  20 C20           -2.5361    -0.1237     0.0271 C.3     
  21 C21           -3.4515    -1.2153    -0.5812 C.3     
  22 C22           -2.8149    -2.5098    -0.0063 C.3     
  23 O23            3.3348    -2.7058    -0.0446 O.2     
  24 F24           -4.7704    -1.0674    -0.1388 F       
  25 C25            5.9341    -3.4263    -0.0741 C.3     
  26 C26            5.4067    -4.1373    -1.3220 C.3     
  27 C27            7.4640    -3.4371    -0.0893 C.3     
  28 C28            5.4314    -4.1506     1.1763 C.3     
  29 F29            1.3820    -5.5694     2.2433 F       
  30 H30           -0.9563     1.9383     0.0171 H       
  31 H31            1.1592     3.1630     0.0083 H       
  32 H32            5.5286     0.7841    -0.0476 H       
  33 H33           -0.8259    -2.5894    -0.8771 H       
  34 H34            0.1936    -4.4113     0.2267 H       
  35 H35            0.9550    -4.1942     4.4215 H       
  36 H36           -0.3669    -2.1210     4.5520 H       
  37 H37           -1.4024    -1.1907     2.5218 H       
  38 H38            6.0911    -1.3089    -0.0643 H       
  39 H39           -2.8398     0.0994     1.0498 H       
  40 H40           -2.5646     0.7788    -0.5835 H       
  41 H41           -3.4027    -1.2039    -1.6701 H       
  42 H42           -3.0157    -3.3605    -0.6576 H       
  43 H43           -3.1771    -2.7020     1.0037 H       
  44 H44            5.7648    -3.6213    -2.2128 H       
  45 H45            5.7627    -5.1675    -1.3310 H       
  46 H46            4.3168    -4.1296    -1.3112 H       
  47 H47            7.8397    -2.9306     0.7998 H       
  48 H48            7.8200    -4.4672    -0.0983 H       
  49 H49            7.8221    -2.9211    -0.9801 H       
  50 H50            4.3415    -4.1430     1.1871 H       
  51 H51            5.7874    -5.1808     1.1673 H       
  52 H52            5.8071    -3.6441     2.0654 H       
@<TRIPOS>BOND
   1    1    2 1
   2    1    6 2
   3    1   30 1
   4    2    3 2
   5    2   10 1
   6    3    4 1
   7    4    5 1
   8    4    7 2
   9    5    6 1
  10    5    9 1
  11    6   31 1
  12    7    8 1
  13    7   18 1
  14    8    9 2
  15    8   32 1
  16   10   20 1
  17   10   11 1
  18   11   12 1
  19   11   22 1
  20   11   33 1
  21   12   13 ar
  22   12   17 ar
  23   13   14 ar
  24   13   34 1
  25   14   15 ar
  26   14   29 1
  27   15   16 ar
  28   15   35 1
  29   16   17 ar
  30   16   36 1
  31   17   37 1
  32   18   23 2
  33   18   19 am
  34   19   25 1
  35   19   38 1
  36   20   21 1
  37   20   39 1
  38   20   40 1
  39   21   22 1
  40   21   24 1
  41   21   41 1
  42   22   42 1
  43   22   43 1
  44   25   26 1
  45   25   27 1
  46   25   28 1
  47   26   44 1
  48   26   45 1
  49   26   46 1
  50   27   47 1
  51   27   48 1
  52   27   49 1
  53   28   50 1
  54   28   51 1
  55   28   52 1

#	End of record

