#	Name: ASD07930257
#	Creating user name:	WinNT
#	Creation time:	15. 06. 2019 21:12

#	Modifying user name:	WinNT
#	Modification time:	15. 06. 2019 21:12

#	Program:	/corina/corina34_cracker 3.40 0067  02.08.2006

@<TRIPOS>MOLECULE
ASD07930257
  53   56    0    0    0
SMALL
NO_CHARGES


@<TRIPOS>ATOM
   1 C1            -0.0207     1.8024     0.3895 C.2     
   2 C2            -0.0921     0.4375     0.4476 C.2     
   3 C3             1.1496    -0.3379     0.3934 C.2     
   4 N4             2.3244     0.3074     0.2902 N.am    
   5 C5             2.3699     1.6820     0.2315 C.2     
   6 C6             1.2296     2.4233     0.2799 C.2     
   7 C7             3.5887    -0.4391     0.2396 C.3     
   8 C8             4.5007     0.2386    -0.7939 C.3     
   9 N9             4.7312     1.6279    -0.3728 N.am    
  10 C10            3.6884     2.3431     0.1127 C.2     
  11 C11            6.0638     2.2277    -0.4763 C.3     
  12 O12            3.8327     3.5040     0.4438 O.2     
  13 O13            1.1180    -1.5558     0.4418 O.2     
  14 N14           -1.3281    -0.2059     0.5572 N.pl3   
  15 C15           -1.8966    -1.0263    -0.3651 C.2     
  16 N16           -3.0483    -1.4332     0.0945 N.2     
  17 C17           -3.2573    -0.8983     1.3069 C.2     
  18 C18           -2.1938    -0.1335     1.6184 C.2     
  19 C19           -4.4702    -1.1201     2.1733 C.3     
  20 C20            7.0174     1.5212     0.4893 C.3     
  21 O21            7.2012     0.1670     0.0717 O.3     
  22 C22            8.0263    -0.6053     0.8274 C.ar    
  23 C23            8.2496    -1.9295     0.4792 C.ar    
  24 C24            8.6500    -0.0685     1.9437 C.ar    
  25 C25            9.4883    -0.8545     2.7108 C.ar    
  26 C26            9.7058    -2.1773     2.3655 C.ar    
  27 C27            9.0882    -2.7130     1.2479 C.ar    
  28 C28            6.5820     2.0752    -1.9077 C.3     
  29 F29           10.5260    -2.9447     3.1162 F       
  30 C30            7.5773    -2.5129    -0.7368 C.3     
  31 F31            7.9544    -3.8524    -0.8805 F       
  32 F32            6.1888    -2.4330    -0.5853 F       
  33 F33            7.9645    -1.7949    -1.8733 F       
  34 H34           -0.9221     2.3964     0.4234 H       
  35 H35            1.2896     3.5007     0.2333 H       
  36 H36            4.0661    -0.4219     1.2194 H       
  37 H37            3.3962    -1.4697    -0.0588 H       
  38 H38            5.4520    -0.2909    -0.8460 H       
  39 H39            4.0181     0.2275    -1.7712 H       
  40 H40            6.0067     3.2859    -0.2213 H       
  41 H41           -1.4675    -1.2959    -1.3189 H       
  42 H42           -2.0528     0.4338     2.5265 H       
  43 H43           -4.3030    -1.9824     2.8187 H       
  44 H44           -4.6453    -0.2360     2.7864 H       
  45 H45           -5.3396    -1.3022     1.5416 H       
  46 H46            7.9789     2.0346     0.4910 H       
  47 H47            6.5951     1.5375     1.4940 H       
  48 H48            8.4807     0.9636     2.2131 H       
  49 H49            9.9743    -0.4367     3.5800 H       
  50 H50            9.2587    -3.7452     0.9796 H       
  51 H51            7.5734     2.5215    -1.9847 H       
  52 H52            6.6391     1.0170    -2.1627 H       
  53 H53            5.9026     2.5785    -2.5956 H       
@<TRIPOS>BOND
   1    1    2 2
   2    1    6 1
   3    1   34 1
   4    2    3 1
   5    2   14 1
   6    3    4 am
   7    3   13 2
   8    4    5 1
   9    4    7 1
  10    5    6 2
  11    5   10 1
  12    6   35 1
  13    7    8 1
  14    7   36 1
  15    7   37 1
  16    8    9 1
  17    8   38 1
  18    8   39 1
  19    9   10 am
  20    9   11 1
  21   10   12 2
  22   11   20 1
  23   11   28 1
  24   11   40 1
  25   14   15 1
  26   14   18 1
  27   15   16 2
  28   15   41 1
  29   16   17 1
  30   17   18 2
  31   17   19 1
  32   18   42 1
  33   19   43 1
  34   19   44 1
  35   19   45 1
  36   20   21 1
  37   20   46 1
  38   20   47 1
  39   21   22 1
  40   22   23 ar
  41   22   24 ar
  42   23   30 1
  43   23   27 ar
  44   24   25 ar
  45   24   48 1
  46   25   26 ar
  47   25   49 1
  48   26   27 ar
  49   26   29 1
  50   27   50 1
  51   28   51 1
  52   28   52 1
  53   28   53 1
  54   30   31 1
  55   30   32 1
  56   30   33 1

#	End of record

