#	Name: ASD01200299
#	Creating user name:	WinNT
#	Creation time:	15. 06. 2019 19:08

#	Modifying user name:	WinNT
#	Modification time:	15. 06. 2019 19:08

#	Program:	/corina/corina34_cracker 3.40 0067  02.08.2006

@<TRIPOS>MOLECULE
ASD01200299
  34   34    0    0    0
SMALL
NO_CHARGES


@<TRIPOS>ATOM
   1 C1            -0.0218     1.7554     0.0117 C.2     
   2 S2             0.0021    -0.0041     0.0020 S.3     
   3 C3            -1.7071    -0.0479     0.0192 C.2     
   4 C4            -2.1832     1.2149     0.0308 C.2     
   5 N5            -1.2482     2.1706     0.0313 N.2     
   6 C6            -3.6221     1.5169     0.0466 C.2     
   7 O7            -4.0420     2.7980     0.0578 O.3     
   8 C8            -5.4766     3.0214     0.0732 C.3     
   9 O9            -4.4333     0.6114     0.0497 O.2     
  10 C10           -5.7584     4.5252     0.0842 C.3     
  11 N11            1.1013     2.5725     0.0054 N.am    
  12 O12            3.4216     2.8173    -0.0160 O.3     
  13 C13            4.7157     2.1589    -0.0324 C.3     
  14 C14            4.8309     1.2920    -1.2878 C.3     
  15 C15            5.8243     3.2134    -0.0373 C.3     
  16 C16            4.8554     1.2777     1.2105 C.3     
  17 C17            2.3329     2.0252    -0.0098 C.2     
  18 O18            2.4606     0.8169    -0.0180 O.2     
  19 H19           -2.3100    -0.9439     0.0202 H       
  20 H20           -5.9234     2.5745    -0.8149 H       
  21 H21           -5.9059     2.5648     0.9649 H       
  22 H22           -5.3116     4.9721     0.9723 H       
  23 H23           -5.3291     4.9819    -0.8076 H       
  24 H24           -6.8354     4.6930     0.0957 H       
  25 H25            0.9994     3.5371     0.0119 H       
  26 H26            4.7314     1.9198    -2.1733 H       
  27 H27            5.8024     0.7978    -1.3002 H       
  28 H28            4.0411     0.5408    -1.2844 H       
  29 H29            5.7422     3.8310     0.8571 H       
  30 H30            6.7957     2.7192    -0.0496 H       
  31 H31            5.7247     3.8412    -0.9227 H       
  32 H32            4.0656     0.5265     1.2139 H       
  33 H33            5.8269     0.7835     1.1981 H       
  34 H34            4.7733     1.8953     2.1049 H       
@<TRIPOS>BOND
   1    1    2 1
   2    1   11 1
   3    1    5 2
   4    2    3 1
   5    3    4 2
   6    3   19 1
   7    4    5 1
   8    4    6 1
   9    6    7 1
  10    6    9 2
  11    7    8 1
  12    8   10 1
  13    8   20 1
  14    8   21 1
  15   10   22 1
  16   10   23 1
  17   10   24 1
  18   11   17 am
  19   11   25 1
  20   12   13 1
  21   12   17 1
  22   13   14 1
  23   13   15 1
  24   13   16 1
  25   14   26 1
  26   14   27 1
  27   14   28 1
  28   15   29 1
  29   15   30 1
  30   15   31 1
  31   16   32 1
  32   16   33 1
  33   16   34 1
  34   17   18 2

#	End of record

