#	Name: ASD00710001
#	Creating user name:	WinNT
#	Creation time:	15. 06. 2019 18:37

#	Modifying user name:	WinNT
#	Modification time:	15. 06. 2019 18:37

#	Program:	/corina/corina34_cracker 3.40 0067  02.08.2006

@<TRIPOS>MOLECULE
ASD00710001
  16   15    0    0    0
SMALL
NO_CHARGES


@<TRIPOS>ATOM
   1 C1            -0.0181     1.4864     0.0102 C.2     
   2 C2             0.0021    -0.0041     0.0020 C.2     
   3 C3             1.3172    -0.7397    -0.0145 C.3     
   4 C4             1.0581    -2.2476    -0.0201 C.3     
   5 C5             2.3732    -2.9833    -0.0366 C.2     
   6 O6             1.0237     2.1070     0.0036 O.2     
   7 O7            -1.1927     2.1434     0.0194 O.3     
   8 O8             3.4113    -2.3650    -0.0432 O.2     
   9 O9             2.3914    -4.3254    -0.0440 O.3     
  10 O10           -1.0356    -0.6221     0.0086 O.2     
  11 H11            1.8766    -0.4639    -0.9084 H       
  12 H12            1.8936    -0.4734     0.8715 H       
  13 H13            0.4987    -2.5235     0.8738 H       
  14 H14            0.4817    -2.5139    -0.9061 H       
  15 H15           -1.1552     3.1097     0.0244 H       
  16 H16            3.2589    -4.7526    -0.0546 H       
@<TRIPOS>BOND
   1    1    2 1
   2    1    6 2
   3    1    7 1
   4    2    3 1
   5    2   10 2
   6    3    4 1
   7    3   11 1
   8    3   12 1
   9    4    5 1
  10    4   13 1
  11    4   14 1
  12    5    8 2
  13    5    9 1
  14    7   15 1
  15    9   16 1

#	End of record

