#	Name: ASD03082308
#	Creating user name:	WinNT
#	Creation time:	15. 06. 2019 20:27

#	Modifying user name:	WinNT
#	Modification time:	15. 06. 2019 20:27

#	Program:	/corina/corina34_cracker 3.40 0067  02.08.2006

@<TRIPOS>MOLECULE
ASD03082308
  49   52    0    0    0
SMALL
NO_CHARGES


@<TRIPOS>ATOM
   1 N1             0.0396     1.5302    -0.1491 N.pl3   
   2 N2             0.0294     0.1265    -0.1860 N.2     
   3 C3             1.2560    -0.2721     0.0591 C.2     
   4 N4             2.0320     0.7972     0.2468 N.2     
   5 C5             1.3125     1.8952     0.1245 C.2     
   6 N6             1.6803    -1.6012     0.1148 N.pl3   
   7 C7             3.0378    -1.8954     0.2675 C.ar    
   8 C8             3.4288    -3.0993     0.8395 C.ar    
   9 C9             4.7732    -3.3870     0.9891 C.ar    
  10 C10            5.7281    -2.4753     0.5693 C.ar    
  11 C11            5.3402    -1.2769    -0.0001 C.ar    
  12 C12            3.9989    -0.9869    -0.1576 C.ar    
  13 C13            1.8099     3.2812     0.2617 C.ar    
  14 C14           -1.1012     2.4224    -0.3696 C.3     
  15 C15            3.1730     3.5506     0.1372 C.ar    
  16 C16            3.6357     4.8487     0.2665 C.ar    
  17 C17            2.7400     5.8837     0.5173 C.ar    
  18 C18            1.3832     5.6142     0.6422 C.ar    
  19 C19            0.9163     4.3238     0.5104 C.ar    
  20 C20           -1.8023     2.6746     0.9404 C.2     
  21 N21           -2.8879     3.4722     0.9811 N.am    
  22 C22           -3.5694     3.7173     2.2546 C.3     
  23 O23           -1.3896     2.1597     1.9579 O.2     
  24 C24           -3.3864     4.0942    -0.2481 C.3     
  25 F25            5.1554    -4.5574     1.5451 F       
  26 O26            4.9696     5.0949     0.1503 O.3     
  27 C27            5.3553     6.4532    -0.0858 C.3     
  28 C28            4.5753     7.3500     0.8850 C.3     
  29 O29            3.1769     7.1668     0.6393 O.3     
  30 H30            1.0328    -2.3203     0.0475 H       
  31 H31            2.6840    -3.8094     1.1672 H       
  32 H32            6.7776    -2.7011     0.6874 H       
  33 H33            6.0870    -0.5680    -0.3260 H       
  34 H34            3.6974    -0.0521    -0.6067 H       
  35 H35           -0.7486     3.3683    -0.7809 H       
  36 H36           -1.7956     1.9581    -1.0698 H       
  37 H37            3.8670     2.7468    -0.0595 H       
  38 H38            0.6907     6.4193     0.8390 H       
  39 H39           -0.1395     4.1187     0.6080 H       
  40 H40           -3.0586     3.1750     3.0503 H       
  41 H41           -3.5549     4.7847     2.4749 H       
  42 H42           -4.6018     3.3745     2.1860 H       
  43 H43           -4.1145     3.4342    -0.7197 H       
  44 H44           -3.8608     5.0456    -0.0073 H       
  45 H45           -2.5549     4.2654    -0.9317 H       
  46 H46            6.4253     6.5669     0.0879 H       
  47 H47            5.1177     6.7296    -1.1130 H       
  48 H48            4.8079     7.0693     1.9123 H       
  49 H49            4.8441     8.3931     0.7186 H       
@<TRIPOS>BOND
   1    1    2 1
   2    1    5 1
   3    1   14 1
   4    2    3 2
   5    3    4 1
   6    3    6 1
   7    4    5 2
   8    5   13 1
   9    6    7 1
  10    6   30 1
  11    7    8 ar
  12    7   12 ar
  13    8    9 ar
  14    8   31 1
  15    9   10 ar
  16    9   25 1
  17   10   11 ar
  18   10   32 1
  19   11   12 ar
  20   11   33 1
  21   12   34 1
  22   13   15 ar
  23   13   19 ar
  24   14   20 1
  25   14   35 1
  26   14   36 1
  27   15   16 ar
  28   15   37 1
  29   16   17 ar
  30   16   26 1
  31   17   18 ar
  32   17   29 1
  33   18   19 ar
  34   18   38 1
  35   19   39 1
  36   20   21 am
  37   20   23 2
  38   21   22 1
  39   21   24 1
  40   22   40 1
  41   22   41 1
  42   22   42 1
  43   24   43 1
  44   24   44 1
  45   24   45 1
  46   26   27 1
  47   27   28 1
  48   27   46 1
  49   27   47 1
  50   28   29 1
  51   28   48 1
  52   28   49 1

#	End of record

