#	Name: ASD00431008
#	Creating user name:	WinNT
#	Creation time:	15. 06. 2019 18:35

#	Modifying user name:	WinNT
#	Modification time:	15. 06. 2019 18:35

#	Program:	/corina/corina34_cracker 3.40 0067  02.08.2006

@<TRIPOS>MOLECULE
ASD00431008
  20   20    0    0    0
SMALL
NO_CHARGES


@<TRIPOS>ATOM
   1 C1            -0.0187     1.5258     0.0104 C.3     
   2 C2             0.0021    -0.0041     0.0020 C.3     
   3 C3             0.7421    -0.5109     1.2415 C.3     
   4 C4             2.1775     0.0187     1.2307 C.3     
   5 C5             2.1567     1.5485     1.2391 C.3     
   6 N6             3.5349     2.0570     1.2287 N.3     
   7 C7             1.4167     2.0553    -0.0004 C.3     
   8 H8            -0.5459     1.8868    -0.8726 H       
   9 H9            -0.5289     1.8773     0.9072 H       
  10 H10           -1.0205    -0.3814     0.0098 H       
  11 H11            0.5123    -0.3556    -0.8948 H       
  12 H12            0.2319    -0.1594     2.1383 H       
  13 H13            0.7568    -1.6008     1.2356 H       
  14 H14            2.7046    -0.3424     2.1137 H       
  15 H15            2.6876    -0.3328     0.3339 H       
  16 H16            1.6465     1.9000     2.1359 H       
  17 H17            3.5481     3.0659     1.2340 H       
  18 H18            4.0636     1.6844     2.0030 H       
  19 H19            1.9269     1.7038    -0.8972 H       
  20 H20            1.4019     3.1452     0.0056 H       
@<TRIPOS>BOND
   1    1    2 1
   2    1    7 1
   3    1    8 1
   4    1    9 1
   5    2    3 1
   6    2   10 1
   7    2   11 1
   8    3    4 1
   9    3   12 1
  10    3   13 1
  11    4    5 1
  12    4   14 1
  13    4   15 1
  14    5    6 1
  15    5    7 1
  16    5   16 1
  17    6   17 1
  18    6   18 1
  19    7   19 1
  20    7   20 1

#	End of record

