#	Name: ASD03091300
#	Creating user name:	WinNT
#	Creation time:	15. 06. 2019 20:30

#	Modifying user name:	WinNT
#	Modification time:	15. 06. 2019 20:30

#	Program:	/corina/corina34_cracker 3.40 0067  02.08.2006

@<TRIPOS>MOLECULE
ASD03091300
  53   57    0    0    0
SMALL
NO_CHARGES


@<TRIPOS>ATOM
   1 N1            -0.0388     1.3763    -0.1230 N.2     
   2 C2            -0.0906     0.0803     0.0429 C.2     
   3 N3             1.0242    -0.6975     0.2033 N.am    
   4 C4             2.2565    -0.1376     0.1963 C.2     
   5 C5             2.3389     1.3189     0.0111 C.ar    
   6 C6             3.5604     1.9879    -0.0103 C.ar    
   7 C7             3.5794     3.3611    -0.1876 C.ar    
   8 C8             2.3877     4.0695    -0.3436 C.ar    
   9 C9             1.1831     3.4276    -0.3244 C.ar    
  10 C10            1.1342     2.0413    -0.1473 C.ar    
  11 O11            3.2585    -0.8141     0.3383 O.2     
  12 C12           -2.4871     0.0061     0.7376 C.ar    
  13 C13           -1.4152    -0.5754     0.0585 C.ar    
  14 C14           -1.6160    -1.7899    -0.6081 C.ar    
  15 C15           -2.8753    -2.3623    -0.5632 C.ar    
  16 C16           -3.8854    -1.7224     0.1319 C.ar    
  17 N17           -3.6671    -0.5778     0.7511 N.ar    
  18 C18           -3.1433    -3.6688    -1.2648 C.3     
  19 C19            0.8828    -2.1444     0.3841 C.3     
  20 N20            7.6009     4.5824    -1.0049 N.3     
  21 C21            7.2384     3.8580     0.2228 C.3     
  22 C22            5.9178     3.1253     0.0442 C.3     
  23 N23            4.7998     4.0417    -0.2101 N.3     
  24 C24            4.9870     4.7454    -1.4866 C.3     
  25 C25            5.6615     6.0897    -1.2577 C.3     
  26 C26            7.1350     5.9742    -0.9232 C.3     
  27 C27            7.2478     3.9425    -2.2540 C.3     
  28 C28            5.7433     3.8443    -2.4455 C.3     
  29 H29            4.4838     1.4410     0.1106 H       
  30 H30            2.4186     5.1403    -0.4810 H       
  31 H31            0.2689     3.9897    -0.4457 H       
  32 H32           -2.3462     0.9407     1.2602 H       
  33 H33           -0.8092    -2.2678    -1.1438 H       
  34 H34           -4.8691    -2.1667     0.1682 H       
  35 H35           -2.9451    -4.4951    -0.5822 H       
  36 H36           -4.1850    -3.7029    -1.5839 H       
  37 H37           -2.4935    -3.7533    -2.1359 H       
  38 H38            0.8274    -2.6287    -0.5908 H       
  39 H39            1.7436    -2.5279     0.9319 H       
  40 H40           -0.0277    -2.3531     0.9458 H       
  41 H41            8.0205     3.1362     0.4581 H       
  42 H42            7.1468     4.5679     1.0449 H       
  43 H43            6.0073     2.4360    -0.7954 H       
  44 H44            5.7067     2.5529     0.9475 H       
  45 H45            4.0028     4.9296    -1.9175 H       
  46 H46            5.5541     6.6927    -2.1593 H       
  47 H47            5.1559     6.5993    -0.4374 H       
  48 H48            7.3007     6.3462     0.0879 H       
  49 H49            7.7076     6.5827    -1.6232 H       
  50 H50            7.6724     4.5165    -3.0776 H       
  51 H51            7.6723     2.9386    -2.2692 H       
  52 H52            5.4319     2.8126    -2.2823 H       
  53 H53            5.4970     4.1294    -3.4684 H       
@<TRIPOS>BOND
   1    1    2 2
   2    1   10 1
   3    2    3 1
   4    2   13 1
   5    3    4 am
   6    3   19 1
   7    4    5 1
   8    4   11 2
   9    5    6 ar
  10    5   10 ar
  11    6    7 ar
  12    6   29 1
  13    7    8 ar
  14    7   23 1
  15    8    9 ar
  16    8   30 1
  17    9   10 ar
  18    9   31 1
  19   12   13 ar
  20   12   17 ar
  21   12   32 1
  22   13   14 ar
  23   14   15 ar
  24   14   33 1
  25   15   16 ar
  26   15   18 1
  27   16   17 ar
  28   16   34 1
  29   18   35 1
  30   18   36 1
  31   18   37 1
  32   19   38 1
  33   19   39 1
  34   19   40 1
  35   20   21 1
  36   20   26 1
  37   20   27 1
  38   21   22 1
  39   21   41 1
  40   21   42 1
  41   22   23 1
  42   22   43 1
  43   22   44 1
  44   23   24 1
  45   24   25 1
  46   24   28 1
  47   24   45 1
  48   25   26 1
  49   25   46 1
  50   25   47 1
  51   26   48 1
  52   26   49 1
  53   27   28 1
  54   27   50 1
  55   27   51 1
  56   28   52 1
  57   28   53 1

#	End of record

