#	Name: ASD05143084
#	Creating user name:	WinNT
#	Creation time:	15. 06. 2019 20:57

#	Modifying user name:	WinNT
#	Modification time:	15. 06. 2019 20:57

#	Program:	/corina/corina34_cracker 3.40 0067  02.08.2006

@<TRIPOS>MOLECULE
ASD05143084
 148  151    0    0    0
SMALL
NO_CHARGES


@<TRIPOS>ATOM
   1 C1             1.4012     2.5417     1.7802 C.2     
   2 C2             1.7697     1.0813     1.8289 C.3     
   3 N3             2.2929     3.4750     2.1679 N.am    
   4 O4             0.3040     2.8775     1.3873 O.2     
   5 C5             1.9347     4.8948     2.1206 C.3     
   6 C6             1.5917     5.2865     0.6819 C.3     
   7 C7             0.7410     5.1415     3.0066 C.2     
   8 C8             2.8392     5.1543    -0.1939 C.3     
   9 C9             2.4962     5.5460    -1.6326 C.3     
  10 N10            3.6907     5.4195    -2.4712 N.pl3   
  11 C11            3.6248     5.7198    -3.8113 C.2     
  12 N12            4.7459     5.6011    -4.5983 N.pl3   
  13 N13            2.4996     6.1171    -4.3356 N.2     
  14 O14            0.0210     4.2188     3.3249 O.2     
  15 N15            0.4734     6.3874     3.4453 N.am    
  16 C16           -0.6871     6.6273     4.3067 C.3     
  17 C17           -0.4478     7.8834     5.1467 C.3     
  18 C18            0.9072     7.7767     5.8489 C.3     
  19 C19            1.6245     9.1263     5.7809 C.3     
  20 N20            1.5661     9.6428     4.4069 N.3     
  21 C21            2.4404    10.8122     4.2459 C.3     
  22 C22            1.8720    11.7272     3.1593 C.3     
  23 C23            2.9770    12.6477     2.6375 C.3     
  24 C24            2.3521    13.9283     2.0800 C.3     
  25 N25            2.1405    13.7638     0.6282 N.am    
  26 C26            3.2787    15.0909     2.3266 C.2     
  27 N27            3.3153    15.6781     3.5391 N.am    
  28 O28            3.9915    15.4981     1.4338 O.2     
  29 C29            0.8501    13.7842     0.1940 C.2     
  30 O30           -0.0622    13.9239     0.9808 O.2     
  31 C31            0.5732    13.6311    -1.2795 C.3     
  32 N32           -0.8598    13.3071    -1.4629 N.am    
  33 C33            0.8999    14.9398    -2.0017 C.3     
  34 C34           -1.1167    12.0718    -1.9871 C.2     
  35 O35           -0.2081    11.3172    -2.2630 O.2     
  36 C36           -2.5490    11.6636    -2.2157 C.3     
  37 N37           -2.6060    10.1980    -2.3870 N.am    
  38 C38           -3.3971    12.0720    -1.0096 C.3     
  39 C39           -3.3548     9.5083    -1.4836 C.2     
  40 O40           -3.9362    10.0927    -0.5940 O.2     
  41 C41           -3.4527     8.0093    -1.6033 C.3     
  42 C42            0.7396    14.7470    -3.4877 C.2     
  43 C43           -0.5046    14.8622    -4.2521 C.ar    
  44 C44           -0.1638    14.5990    -5.5913 C.ar    
  45 N45            1.1889    14.3445    -5.6237 N.pl3   
  46 C46            1.7111    14.4429    -4.3627 C.2     
  47 C47           -1.8272    15.1567    -3.9147 C.ar    
  48 C48           -2.7848    15.1877    -4.8887 C.ar    
  49 C49           -2.4537    14.9282    -6.2117 C.ar    
  50 C50           -1.1551    14.6364    -6.5668 C.ar    
  51 N51           -3.9348     7.4630    -0.3139 N.am    
  52 C52           -2.0740     7.4285    -1.9238 C.3     
  53 C53           -1.6734     7.8273    -3.3208 C.ar    
  54 C54           -0.5773     8.6458    -3.5183 C.ar    
  55 C55           -0.2097     9.0117    -4.7999 C.ar    
  56 C56           -0.9381     8.5587    -5.8836 C.ar    
  57 C57           -2.0340     7.7393    -5.6861 C.ar    
  58 C58           -2.3989     7.3699    -4.4052 C.ar    
  59 C59           -1.9147     6.8196     3.4536 C.2     
  60 O60           -2.6199     7.7951     3.6016 O.2     
  61 C61           -4.8799    11.9118    -1.3511 C.3     
  62 C62           -5.7226    12.1784    -0.1023 C.3     
  63 N63           -7.1424    12.0250    -0.4293 N.pl3   
  64 C64           -8.0962    12.2171     0.5421 C.2     
  65 N65           -9.4286    12.0731     0.2352 N.pl3   
  66 N66           -7.7373    12.5357     1.7539 N.2     
  67 N67           -2.2203     5.8827     2.5142 N.am    
  68 C68           -3.4322     6.1276     1.7071 C.3     
  69 C69           -3.0237     6.7221     0.3840 C.2     
  70 O70           -1.9064     6.5457    -0.0535 O.2     
  71 C71           -4.3514     7.1028     2.4454 C.3     
  72 C72           -4.6459     6.5697     3.8238 C.2     
  73 O73           -4.1677     5.5139     4.1806 O.2     
  74 N74           -5.4407     7.2664     4.6601 N.am    
  75 C75            0.9848     9.9049    -5.0151 C.3     
  76 H76            2.0141     0.8022     2.8539 H       
  77 H77            0.9284     0.4825     1.4801 H       
  78 H78            2.6331     0.9028     1.1881 H       
  79 H79            3.1719     3.2067     2.4784 H       
  80 H80            2.7761     5.4936     2.4694 H       
  81 H81            0.8101     4.6281     0.3026 H       
  82 H82            1.2401     6.3180     0.6602 H       
  83 H83            3.6208     5.8126     0.1853 H       
  84 H84            3.1908     4.1228    -0.1722 H       
  85 H85            1.7146     4.8877    -2.0119 H       
  86 H86            2.1446     6.5775    -1.6543 H       
  87 H87            4.5281     5.1239    -2.0811 H       
  88 H88            5.5833     5.3054    -4.2081 H       
  89 H89            4.6994     5.8129    -5.5437 H       
  90 H90            2.4531     6.3289    -5.2810 H       
  91 H91            1.0492     7.1254     3.1907 H       
  92 H92           -0.8333     5.7717     4.9660 H       
  93 H93           -0.4533     8.7601     4.4990 H       
  94 H94           -1.2371     7.9776     5.8925 H       
  95 H95            0.7551     7.4982     6.8917 H       
  96 H96            1.5137     7.0176     5.3549 H       
  97 H97            1.1375     9.8310     6.4550 H       
  98 H98            2.6657     8.9998     6.0777 H       
  99 H99            1.7990     8.9226     3.7397 H       
 100 H100           2.4952    11.3575     5.1881 H       
 101 H101           3.4387    10.4828     3.9579 H       
 102 H102           1.4865    11.1214     2.3392 H       
 103 H103           1.0648    12.3291     3.5768 H       
 104 H104           3.6555    12.8994     3.4527 H       
 105 H105           3.5304    12.1397     1.8477 H       
 106 H106           1.3958    14.1111     2.5700 H       
 107 H107           2.8829    13.6474     0.0148 H       
 108 H108           2.7453    15.3524     4.2531 H       
 109 H109           3.9118    16.4264     3.6978 H       
 110 H110           1.1849    12.8250    -1.6846 H       
 111 H111          -1.5667    13.9282    -1.2272 H       
 112 H112           0.2210    15.7218    -1.6614 H       
 113 H113           1.9273    15.2295    -1.7816 H       
 114 H114          -2.9288    12.1512    -3.1135 H       
 115 H115          -2.1343     9.7499    -3.1065 H       
 116 H116          -3.1494    11.4366    -0.1593 H       
 117 H117          -3.1927    13.1125    -0.7574 H       
 118 H118          -4.1549     7.7506    -2.3958 H       
 119 H119           1.6968    14.1311    -6.4221 H       
 120 H120           2.7495    14.2907    -4.1081 H       
 121 H121          -2.0922    15.3589    -2.8875 H       
 122 H122          -3.8076    15.4156    -4.6272 H       
 123 H123          -3.2218    14.9561    -6.9704 H       
 124 H124          -0.9075    14.4362    -7.5988 H       
 125 H125          -4.8346     7.6205     0.0124 H       
 126 H126          -1.3433     7.8133    -1.2124 H       
 127 H127          -2.1123     6.3415    -1.8532 H       
 128 H128          -0.0081     8.9997    -2.6714 H       
 129 H129          -0.6514     8.8451    -6.8847 H       
 130 H130          -2.6034     7.3856    -6.5330 H       
 131 H131          -3.2549     6.7298    -4.2509 H       
 132 H132          -5.1519    12.6226    -2.1315 H       
 133 H133          -5.0639    10.8970    -1.7039 H       
 134 H134          -5.4506    11.4676     0.6781 H       
 135 H135          -5.5386    13.1932     0.2505 H       
 136 H136          -7.4095    11.7879    -1.3311 H       
 137 H137          -9.6957    11.8360    -0.6666 H       
 138 H138         -10.1015    12.2087     0.9205 H       
 139 H139          -8.4102    12.6712     2.4393 H       
 140 H140          -1.6704     5.0946     2.3822 H       
 141 H141          -3.9552     5.1862     1.5386 H       
 142 H142          -3.8608     8.0727     2.5280 H       
 143 H143          -5.2838     7.2132     1.8917 H       
 144 H144          -5.8231     8.1109     4.3748 H       
 145 H145          -5.6302     6.9233     5.5474 H       
 146 H146           1.8643     9.2932    -5.2165 H       
 147 H147           0.7981    10.5632    -5.8636 H       
 148 H148           1.1561    10.5043    -4.1210 H       
@<TRIPOS>BOND
   1    1    2 1
   2    1    3 am
   3    1    4 2
   4    2   76 1
   5    2   77 1
   6    2   78 1
   7    3    5 1
   8    3   79 1
   9    5    6 1
  10    5    7 1
  11    5   80 1
  12    6    8 1
  13    6   81 1
  14    6   82 1
  15    7   14 2
  16    7   15 am
  17    8    9 1
  18    8   83 1
  19    8   84 1
  20    9   10 1
  21    9   85 1
  22    9   86 1
  23   10   11 1
  24   10   87 1
  25   11   12 1
  26   11   13 2
  27   12   88 1
  28   12   89 1
  29   13   90 1
  30   15   16 1
  31   15   91 1
  32   16   17 1
  33   16   59 1
  34   16   92 1
  35   17   18 1
  36   17   93 1
  37   17   94 1
  38   18   19 1
  39   18   95 1
  40   18   96 1
  41   19   20 1
  42   19   97 1
  43   19   98 1
  44   20   21 1
  45   20   99 1
  46   21   22 1
  47   21  100 1
  48   21  101 1
  49   22   23 1
  50   22  102 1
  51   22  103 1
  52   23   24 1
  53   23  104 1
  54   23  105 1
  55   24   25 1
  56   24   26 1
  57   24  106 1
  58   25   29 am
  59   25  107 1
  60   26   27 am
  61   26   28 2
  62   27  108 1
  63   27  109 1
  64   29   30 2
  65   29   31 1
  66   31   32 1
  67   31   33 1
  68   31  110 1
  69   32   34 am
  70   32  111 1
  71   33   42 1
  72   33  112 1
  73   33  113 1
  74   34   35 2
  75   34   36 1
  76   36   37 1
  77   36   38 1
  78   36  114 1
  79   37   39 am
  80   37  115 1
  81   38   61 1
  82   38  116 1
  83   38  117 1
  84   39   40 2
  85   39   41 1
  86   41   51 1
  87   41   52 1
  88   41  118 1
  89   42   43 1
  90   42   46 2
  91   43   44 ar
  92   43   47 ar
  93   44   45 1
  94   44   50 ar
  95   45   46 1
  96   45  119 1
  97   46  120 1
  98   47   48 ar
  99   47  121 1
 100   48   49 ar
 101   48  122 1
 102   49   50 ar
 103   49  123 1
 104   50  124 1
 105   51   69 am
 106   51  125 1
 107   52   53 1
 108   52  126 1
 109   52  127 1
 110   53   54 ar
 111   53   58 ar
 112   54   55 ar
 113   54  128 1
 114   55   56 ar
 115   55   75 1
 116   56   57 ar
 117   56  129 1
 118   57   58 ar
 119   57  130 1
 120   58  131 1
 121   59   60 2
 122   59   67 am
 123   61   62 1
 124   61  132 1
 125   61  133 1
 126   62   63 1
 127   62  134 1
 128   62  135 1
 129   63   64 1
 130   63  136 1
 131   64   65 1
 132   64   66 2
 133   65  137 1
 134   65  138 1
 135   66  139 1
 136   67   68 1
 137   67  140 1
 138   68   69 1
 139   68   71 1
 140   68  141 1
 141   69   70 2
 142   71   72 1
 143   71  142 1
 144   71  143 1
 145   72   73 2
 146   72   74 am
 147   74  144 1
 148   74  145 1
 149   75  146 1
 150   75  147 1
 151   75  148 1

#	End of record

