#	Name: ASD01811566
#	Creating user name:	WinNT
#	Creation time:	15. 06. 2019 19:27

#	Modifying user name:	WinNT
#	Modification time:	15. 06. 2019 19:27

#	Program:	/corina/corina34_cracker 3.40 0067  02.08.2006

@<TRIPOS>MOLECULE
ASD01811566
  67   71    0    0    0
SMALL
NO_CHARGES


@<TRIPOS>ATOM
   1 C1            -7.6561     2.4768    -4.1282 C.1     
   2 C2            -6.6459     3.2286    -3.4464 C.ar    
   3 C3            -5.4819     2.5979    -3.0025 C.ar    
   4 C4            -4.5129     3.3282    -2.3463 C.ar    
   5 C5            -4.6925     4.6825    -2.1272 C.ar    
   6 C6            -5.8437     5.3137    -2.5640 C.ar    
   7 C7            -6.8178     4.5969    -3.2275 C.ar    
   8 N8            -8.4574     1.8804    -4.6691 N.1     
   9 N9            -2.5324     7.8388    -0.3128 N.am    
  10 C10           -2.0136     7.3683    -1.6044 C.3     
  11 C11           -3.1179     6.5881    -2.3246 C.3     
  12 C12           -3.6297     5.4736    -1.4092 C.3     
  13 C13           -4.2218     6.0867    -0.1381 C.3     
  14 C14           -3.1301     6.8612     0.6069 C.3     
  15 C15           -2.4565     9.1415     0.0243 C.2     
  16 C16           -3.0591     9.6142     1.2891 C.ar    
  17 C17           -3.9987    10.6477     1.2735 C.ar    
  18 C18           -4.5621    11.0900     2.4536 C.ar    
  19 C19           -4.2011    10.5153     3.6565 C.ar    
  20 C20           -3.2631     9.4817     3.6862 C.ar    
  21 C21           -2.6952     9.0261     2.4985 C.ar    
  22 O22           -1.8926     9.9278    -0.7114 O.2     
  23 C23           -4.8206    11.0055     4.9398 C.3     
  24 C24           -4.3980    11.2813    -0.0342 C.3     
  25 C25           -2.8773     8.8677     4.9755 C.2     
  26 N26           -1.8959     7.9321     5.1539 N.pl3   
  27 C27           -1.8681     7.6400     6.4803 C.2     
  28 C28           -2.8235     8.3932     7.0787 C.2     
  29 N29           -3.4170     9.1338     6.1479 N.2     
  30 C30           -0.9802     6.6801     7.2290 C.3     
  31 C31           -3.0942     8.3365     8.5632 C.3     
  32 C32           -2.4286     7.0661     9.1118 C.3     
  33 O33           -1.0857     6.9786     8.6281 O.3     
  34 C34           -2.4167     7.1172    10.6409 C.3     
  35 C35           -3.2168     5.8386     8.6504 C.3     
  36 H36           -5.3407     1.5407    -3.1722 H       
  37 H37           -3.6121     2.8416    -2.0024 H       
  38 H38           -5.9777     6.3711    -2.3894 H       
  39 H39           -7.7138     5.0918    -3.5721 H       
  40 H40           -1.7147     8.2229    -2.2113 H       
  41 H41           -1.1552     6.7174    -1.4382 H       
  42 H42           -3.9383     7.2622    -2.5708 H       
  43 H43           -2.7175     6.1521    -3.2399 H       
  44 H44           -2.8036     4.8141    -1.1432 H       
  45 H45           -5.0318     6.7655    -0.4049 H       
  46 H46           -4.6072     5.2938     0.5028 H       
  47 H47           -2.3627     6.1690     0.9534 H       
  48 H48           -3.5678     7.3812     1.4590 H       
  49 H49           -5.2882    11.8894     2.4362 H       
  50 H50           -1.9727     8.2235     2.5156 H       
  51 H51           -5.6655    10.3686     5.2018 H       
  52 H52           -4.0787    10.9712     5.7377 H       
  53 H53           -5.1656    12.0310     4.8082 H       
  54 H54           -5.1889    10.6913    -0.4973 H       
  55 H55           -4.7589    12.2936     0.1478 H       
  56 H56           -3.5349    11.3173    -0.6989 H       
  57 H57           -1.3291     7.5500     4.4657 H       
  58 H58           -1.3064     5.6564     7.0450 H       
  59 H59            0.0527     6.8026     6.9029 H       
  60 H60           -2.6704     9.2151     9.0497 H       
  61 H61           -4.1688     8.2970     8.7415 H       
  62 H62           -3.4403     7.1800    11.0103 H       
  63 H63           -1.9444     6.2156    11.0309 H       
  64 H64           -1.8570     7.9924    10.9708 H       
  65 H65           -3.2276     5.8021     7.5611 H       
  66 H66           -2.7449     4.9364     9.0395 H       
  67 H67           -4.2395     5.9028     9.0219 H       
@<TRIPOS>BOND
   1    1    2 1
   2    1    8 3
   3    2    3 ar
   4    2    7 ar
   5    3    4 ar
   6    3   36 1
   7    4    5 ar
   8    4   37 1
   9    5    6 ar
  10    5   12 1
  11    6    7 ar
  12    6   38 1
  13    7   39 1
  14    9   10 1
  15    9   14 1
  16    9   15 am
  17   10   11 1
  18   10   40 1
  19   10   41 1
  20   11   12 1
  21   11   42 1
  22   11   43 1
  23   12   13 1
  24   12   44 1
  25   13   14 1
  26   13   45 1
  27   13   46 1
  28   14   47 1
  29   14   48 1
  30   15   16 1
  31   15   22 2
  32   16   17 ar
  33   16   21 ar
  34   17   18 ar
  35   17   24 1
  36   18   19 ar
  37   18   49 1
  38   19   20 ar
  39   19   23 1
  40   20   21 ar
  41   20   25 1
  42   21   50 1
  43   23   51 1
  44   23   52 1
  45   23   53 1
  46   24   54 1
  47   24   55 1
  48   24   56 1
  49   25   26 1
  50   25   29 2
  51   26   27 1
  52   26   57 1
  53   27   28 2
  54   27   30 1
  55   28   29 1
  56   28   31 1
  57   30   33 1
  58   30   58 1
  59   30   59 1
  60   31   32 1
  61   31   60 1
  62   31   61 1
  63   32   33 1
  64   32   34 1
  65   32   35 1
  66   34   62 1
  67   34   63 1
  68   34   64 1
  69   35   65 1
  70   35   66 1
  71   35   67 1

#	End of record

