#	Name: ASD03090580
#	Creating user name:	WinNT
#	Creation time:	15. 06. 2019 20:29

#	Modifying user name:	WinNT
#	Modification time:	15. 06. 2019 20:29

#	Program:	/corina/corina34_cracker 3.40 0067  02.08.2006

@<TRIPOS>MOLECULE
ASD03090580
  32   34    0    0    0
SMALL
NO_CHARGES


@<TRIPOS>ATOM
   1 N1            -0.0162     1.3436     0.0094 N.am    
   2 C2            -0.2090     0.1221    -0.5266 C.2     
   3 O3             0.6799    -0.4096    -1.1633 O.2     
   4 N4            -1.3872    -0.5100    -0.3567 N.am    
   5 S5            -3.0191    -2.7009    -0.7847 S.3     
   6 C6            -1.5862    -1.7704    -0.9098 C.2     
   7 N7            -0.7165    -2.4371    -1.6072 N.2     
   8 N8            -1.0582    -3.5732    -2.0388 N.2     
   9 C9            -2.2548    -3.9699    -1.7424 C.2     
  10 C10           -2.8815    -5.2805    -2.1429 C.3     
  11 F11           -1.9314    -6.0706    -2.7989 F       
  12 F12           -3.3352    -5.9489    -1.0007 F       
  13 F13           -3.9597    -5.0390    -3.0010 F       
  14 O14            4.9708     3.7292    -0.2933 O.3     
  15 C15            5.0316     5.0613    -0.8141 C.3     
  16 C16            3.9271     5.8899    -0.1441 C.3     
  17 O17            2.6661     5.2823    -0.4451 O.3     
  18 C18            2.5867     3.9315    -0.2968 C.ar    
  19 C19            3.7376     3.1550    -0.2229 C.ar    
  20 C20            1.3409     3.3290    -0.2186 C.ar    
  21 C21            1.2433     1.9526    -0.0698 C.ar    
  22 C22            2.3940     1.1797     0.0010 C.ar    
  23 C23            3.6362     1.7800    -0.0754 C.ar    
  24 H24           -0.7503     1.8028     0.4465 H       
  25 H25           -2.0964    -0.0858     0.1513 H       
  26 H26            6.0050     5.4987    -0.5924 H       
  27 H27            4.8737     5.0420    -1.8925 H       
  28 H28            4.0807     5.9029     0.9349 H       
  29 H29            3.9459     6.9088    -0.5310 H       
  30 H30            0.4458     3.9309    -0.2736 H       
  31 H31            2.3184     0.1085     0.1161 H       
  32 H32            4.5303     1.1767    -0.0204 H       
@<TRIPOS>BOND
   1    1    2 am
   2    1   21 1
   3    1   24 1
   4    2    3 2
   5    2    4 am
   6    4    6 1
   7    4   25 1
   8    5    6 1
   9    5    9 1
  10    6    7 2
  11    7    8 1
  12    8    9 2
  13    9   10 1
  14   10   11 1
  15   10   12 1
  16   10   13 1
  17   14   15 1
  18   14   19 1
  19   15   16 1
  20   15   26 1
  21   15   27 1
  22   16   17 1
  23   16   28 1
  24   16   29 1
  25   17   18 1
  26   18   19 ar
  27   18   20 ar
  28   19   23 ar
  29   20   21 ar
  30   20   30 1
  31   21   22 ar
  32   22   23 ar
  33   22   31 1
  34   23   32 1

#	End of record

