#	Name: ASD00780002
#	Creating user name:	WinNT
#	Creation time:	15. 06. 2019 18:37

#	Modifying user name:	WinNT
#	Modification time:	15. 06. 2019 18:37

#	Program:	/corina/corina34_cracker 3.40 0067  02.08.2006

@<TRIPOS>MOLECULE
ASD00780002
  42   44    0    0    0
SMALL
NO_CHARGES


@<TRIPOS>ATOM
   1 C1            -0.0166     1.3746     0.0096 C.2     
   2 C2             0.0021    -0.0041     0.0020 C.2     
   3 C3            -1.1843    -0.7468     0.0094 C.2     
   4 C4            -2.3981    -0.1406     0.0242 C.2     
   5 C5            -2.4844     1.2707     0.0331 C.2     
   6 C6            -1.2420     2.0554     0.0308 C.2     
   7 O7            -1.2764     3.2787     0.0383 O.2     
   8 Br8            1.6066     2.3447    -0.0007 Br      
   9 O9             1.1929    -0.6530    -0.0133 O.3     
  10 Br10          -1.0935    -2.6356    -0.0023 Br      
  11 C11           -3.7247     1.9056     0.0479 C.2     
  12 N12           -4.8527     1.1761     0.0539 N.pl3   
  13 N13           -6.0997     1.8145     0.0688 N.am    
  14 C14           -7.2314     1.0826     0.0748 C.2     
  15 C15           -8.5728     1.7693     0.0908 C.3     
  16 N16           -9.6369     0.7623     0.0946 N.pl3   
  17 C17          -10.9749     1.1607     0.1089 C.ar    
  18 C18          -11.9697     0.2081     0.1124 C.ar    
  19 C19          -13.3146     0.6126     0.1273 C.ar    
  20 C20          -13.6261     1.9957     0.1385 C.ar    
  21 C21          -12.5853     2.9412     0.1345 C.ar    
  22 C22          -11.2917     2.5248     0.1254 C.ar    
  23 C23          -14.3580    -0.3291     0.1307 C.ar    
  24 C24          -15.6505     0.0977     0.1449 C.ar    
  25 C25          -15.9566     1.4569     0.1556 C.ar    
  26 C26          -14.9723     2.3974     0.1530 C.ar    
  27 O27           -7.1703    -0.1287     0.0673 O.2     
  28 H28           -3.2988    -0.7364     0.0289 H       
  29 H29            1.1156    -1.6169    -0.0177 H       
  30 H30           -3.7791     2.9842     0.0546 H       
  31 H31           -4.8038     0.2073     0.0479 H       
  32 H32           -6.1486     2.7832     0.0748 H       
  33 H33           -8.6540     2.3871     0.9851 H       
  34 H34           -8.6700     2.3973    -0.7948 H       
  35 H35           -9.4118    -0.1812     0.0871 H       
  36 H36          -11.7175    -0.8420     0.1034 H       
  37 H37          -12.8136     3.9967     0.1427 H       
  38 H38          -10.4969     3.2561     0.1227 H       
  39 H39          -14.1355    -1.3858     0.1219 H       
  40 H40          -16.4505    -0.6279     0.1475 H       
  41 H41          -16.9904     1.7692     0.1660 H       
  42 H42          -15.2250     3.4473     0.1618 H       
@<TRIPOS>BOND
   1    1    2 2
   2    1    8 1
   3    1    6 1
   4    2    3 1
   5    2    9 1
   6    3    4 2
   7    3   10 1
   8    4    5 1
   9    4   28 1
  10    5    6 1
  11    5   11 2
  12    6    7 2
  13    9   29 1
  14   11   12 1
  15   11   30 1
  16   12   13 1
  17   12   31 1
  18   13   14 am
  19   13   32 1
  20   14   15 1
  21   14   27 2
  22   15   16 1
  23   15   33 1
  24   15   34 1
  25   16   17 1
  26   16   35 1
  27   17   18 ar
  28   17   22 ar
  29   18   19 ar
  30   18   36 1
  31   19   20 ar
  32   19   23 ar
  33   20   21 ar
  34   20   26 ar
  35   21   22 ar
  36   21   37 1
  37   22   38 1
  38   23   24 ar
  39   23   39 1
  40   24   25 ar
  41   24   40 1
  42   25   26 ar
  43   25   41 1
  44   26   42 1

#	End of record

