#	Name: ASD01720086
#	Creating user name:	WinNT
#	Creation time:	15. 06. 2019 19:23

#	Modifying user name:	WinNT
#	Modification time:	15. 06. 2019 19:23

#	Program:	/corina/corina34_cracker 3.40 0067  02.08.2006

@<TRIPOS>MOLECULE
ASD01720086
  75   80    0    0    0
SMALL
NO_CHARGES


@<TRIPOS>ATOM
   1 C1            -0.0165     1.3645     0.0095 C.ar    
   2 C2             0.0021    -0.0041     0.0020 C.ar    
   3 C3             1.2239    -0.6746    -0.0132 C.ar    
   4 N4             2.3695    -0.0074    -0.0202 N.ar    
   5 C5             2.4006     1.3140    -0.0134 C.ar    
   6 C6             1.2064     2.0517     0.0016 C.ar    
   7 N7             1.2414    -2.0588    -0.0209 N.3     
   8 O8             3.5909     1.9597    -0.0203 O.3     
   9 C9             4.7682     1.1498    -0.0350 C.3     
  10 C10            6.0059     2.0492    -0.0411 C.3     
  11 C11            7.2664     1.1821    -0.0568 C.3     
  12 C12            7.3295     0.3979    -1.3690 C.3     
  13 C13            8.5021     2.0764     0.0629 C.3     
  14 C14            1.2369     3.5235     0.0092 C.2     
  15 O15            2.3026     4.1098     0.0021 O.2     
  16 N16            0.0839     4.2214     0.0239 N.am    
  17 C17            2.6350    -2.5735    -0.0369 C.3     
  18 C18            2.5114    -4.0141    -0.5779 C.3     
  19 C19            1.1996    -4.0263    -1.3896 C.3     
  20 C20            0.6410    -2.5920    -1.2707 C.3     
  21 C21            2.5441    -4.2207    -2.0936 C.3     
  22 C22            2.8699    -5.6024    -2.5993 C.2     
  23 O23            3.0927    -6.4953    -1.8164 O.2     
  24 O24            2.9124    -5.8411    -3.9195 O.3     
  25 C25            0.1143     5.6860     0.0315 C.3     
  26 C26           -1.1880     6.2262    -0.5628 C.3     
  27 C27           -1.1563     7.7558    -0.5549 C.3     
  28 C28            0.2643     6.1856     1.4698 C.3     
  29 C29            0.2959     7.7152     1.4778 C.3     
  30 C30           -1.0063     8.2554     0.8834 C.3     
  31 C31           -0.9197     5.6957     2.3060 C.3     
  32 C32           -2.3720     5.7363     0.2733 C.3     
  33 C33           -2.1903     7.7655     1.7195 C.3     
  34 C34           -2.2220     6.2358     1.7116 C.3     
  35 O35           -0.9767     9.6841     0.8908 O.3     
  36 C36           -2.1528    10.2926     0.3536 C.3     
  37 H37           -0.9523     1.9036     0.0169 H       
  38 H38           -0.9235    -0.5605     0.0082 H       
  39 H39            4.7841     0.5158     0.8515 H       
  40 H40            4.7685     0.5254    -0.9284 H       
  41 H41            5.9900     2.6833    -0.9276 H       
  42 H42            6.0056     2.6737     0.8523 H       
  43 H43            7.2390     0.4861     0.7816 H       
  44 H44            7.3569     1.0939    -2.2073 H       
  45 H45            8.2275    -0.2199    -1.3802 H       
  46 H46            6.4492    -0.2392    -1.4542 H       
  47 H47            8.4571     2.6351     0.9977 H       
  48 H48            9.4001     1.4586     0.0517 H       
  49 H49            8.5294     2.7724    -0.7755 H       
  50 H50           -0.7659     3.7538     0.0295 H       
  51 H51            3.2553    -1.9704    -0.6999 H       
  52 H52            3.0494    -2.5803     0.9712 H       
  53 H53            2.7789    -4.8303     0.0931 H       
  54 H54            0.4907    -4.8516    -1.3228 H       
  55 H55           -0.4459    -2.6127    -1.1916 H       
  56 H56            0.9493    -1.9918    -2.1267 H       
  57 H57            2.9147    -3.3979    -2.7048 H       
  58 H58            3.1257    -6.7429    -4.1959 H       
  59 H59            0.9578     6.0350    -0.5642 H       
  60 H60           -1.2948     5.8703    -1.5875 H       
  61 H61           -0.3128     8.1049    -1.1506 H       
  62 H62           -2.0841     8.1407    -0.9783 H       
  63 H63            1.1920     5.8008     1.8933 H       
  64 H64            0.4028     8.0711     2.5025 H       
  65 H65            1.1394     8.0643     0.8821 H       
  66 H66           -0.9423     4.6059     2.3003 H       
  67 H67           -0.8129     6.0516     3.3307 H       
  68 H68           -3.2997     6.1211    -0.1501 H       
  69 H69           -2.3945     4.6465     0.2676 H       
  70 H70           -2.0835     8.1214     2.7442 H       
  71 H71           -3.1181     8.1503     1.2961 H       
  72 H72           -3.0655     5.8868     2.3073 H       
  73 H73           -2.2834     9.9789    -0.6821 H       
  74 H74           -3.0201     9.9858     0.9382 H       
  75 H75           -2.0520    11.3771     0.3948 H       
@<TRIPOS>BOND
   1    1    2 ar
   2    1    6 ar
   3    1   37 1
   4    2    3 ar
   5    2   38 1
   6    3    4 ar
   7    3    7 1
   8    4    5 ar
   9    5    6 ar
  10    5    8 1
  11    6   14 1
  12    7   17 1
  13    7   20 1
  14    8    9 1
  15    9   10 1
  16    9   39 1
  17    9   40 1
  18   10   11 1
  19   10   41 1
  20   10   42 1
  21   11   12 1
  22   11   13 1
  23   11   43 1
  24   12   44 1
  25   12   45 1
  26   12   46 1
  27   13   47 1
  28   13   48 1
  29   13   49 1
  30   14   15 2
  31   14   16 am
  32   16   25 1
  33   16   50 1
  34   17   18 1
  35   17   51 1
  36   17   52 1
  37   18   19 1
  38   18   21 1
  39   18   53 1
  40   19   20 1
  41   19   21 1
  42   19   54 1
  43   20   55 1
  44   20   56 1
  45   21   22 1
  46   21   57 1
  47   22   23 2
  48   22   24 1
  49   24   58 1
  50   25   26 1
  51   25   28 1
  52   25   59 1
  53   26   27 1
  54   26   32 1
  55   26   60 1
  56   27   30 1
  57   27   61 1
  58   27   62 1
  59   28   29 1
  60   28   31 1
  61   28   63 1
  62   29   30 1
  63   29   64 1
  64   29   65 1
  65   30   33 1
  66   30   35 1
  67   31   34 1
  68   31   66 1
  69   31   67 1
  70   32   34 1
  71   32   68 1
  72   32   69 1
  73   33   34 1
  74   33   70 1
  75   33   71 1
  76   34   72 1
  77   35   36 1
  78   36   73 1
  79   36   74 1
  80   36   75 1

#	End of record

