#	Name: ASD00071031
#	Creating user name:	WinNT
#	Creation time:	15. 06. 2019 18:30

#	Modifying user name:	WinNT
#	Modification time:	15. 06. 2019 18:30

#	Program:	/corina/corina34_cracker 3.40 0067  02.08.2006

@<TRIPOS>MOLECULE
ASD00071031
  40   42    0    0    0
SMALL
NO_CHARGES


@<TRIPOS>ATOM
   1 N1             1.8338     1.2425    -1.2030 N.ar    
   2 C2             1.6394    -0.0599    -1.1906 C.ar    
   3 C3             1.3734    -0.7508     0.0006 C.ar    
   4 C4             1.3115    -0.0716     1.1798 C.ar    
   5 C5             1.5205     1.3229     1.1597 C.ar    
   6 C6             1.4713     2.0832     2.3377 C.ar    
   7 C7             1.6790     3.4303     2.2802 C.ar    
   8 C8             1.9397     4.0612     1.0643 C.ar    
   9 C9             1.9940     3.3518    -0.0964 C.ar    
  10 C10            1.7852     1.9625    -0.0759 C.ar    
  11 N11            1.6988    -0.7651    -2.3837 N.pl3   
  12 F12            1.6310     4.1620     3.4149 F       
  13 C13            1.1557    -2.2418    -0.0239 C.3     
  14 C14            1.0250    -2.7537     1.3874 C.ar    
  15 C15           -0.2268    -2.8638     1.9729 C.ar    
  16 C16           -0.3446    -3.3354     3.2727 C.ar    
  17 C17            0.7845    -3.6951     3.9833 C.ar    
  18 C18            2.0333    -3.5863     3.4020 C.ar    
  19 C19            2.1559    -3.1206     2.1004 C.ar    
  20 O20            3.3839    -3.0191     1.5273 O.3     
  21 C21            4.5047    -3.4148     2.3205 C.3     
  22 O22           -1.3377    -2.5097     1.2746 O.3     
  23 C23           -2.5943    -2.6493     1.9405 C.3     
  24 H24            1.1074    -0.5878     2.1062 H       
  25 H25            1.2698     1.6047     3.2848 H       
  26 H26            2.1006     5.1290     1.0429 H       
  27 H27            2.1966     3.8554    -1.0301 H       
  28 H28            1.7999    -0.2900    -3.2234 H       
  29 H29            1.6393    -1.7333    -2.3784 H       
  30 H30            0.2444    -2.4668    -0.5780 H       
  31 H31            2.0042    -2.7248    -0.5085 H       
  32 H32           -1.3196    -3.4210     3.7293 H       
  33 H33            0.6908    -4.0616     4.9949 H       
  34 H34            2.9143    -3.8681     3.9594 H       
  35 H35            4.3987    -4.4624     2.6021 H       
  36 H36            5.4212    -3.2842     1.7451 H       
  37 H37            4.5492    -2.7997     3.2192 H       
  38 H38           -2.7439    -3.6923     2.2195 H       
  39 H39           -2.6016    -2.0288     2.8366 H       
  40 H40           -3.3961    -2.3331     1.2732 H       
@<TRIPOS>BOND
   1    1    2 ar
   2    1   10 ar
   3    2    3 ar
   4    2   11 1
   5    3    4 ar
   6    3   13 1
   7    4    5 ar
   8    4   24 1
   9    5    6 ar
  10    5   10 ar
  11    6    7 ar
  12    6   25 1
  13    7    8 ar
  14    7   12 1
  15    8    9 ar
  16    8   26 1
  17    9   10 ar
  18    9   27 1
  19   11   28 1
  20   11   29 1
  21   13   14 1
  22   13   30 1
  23   13   31 1
  24   14   15 ar
  25   14   19 ar
  26   15   16 ar
  27   15   22 1
  28   16   17 ar
  29   16   32 1
  30   17   18 ar
  31   17   33 1
  32   18   19 ar
  33   18   34 1
  34   19   20 1
  35   20   21 1
  36   21   35 1
  37   21   36 1
  38   21   37 1
  39   22   23 1
  40   23   38 1
  41   23   39 1
  42   23   40 1

#	End of record

