#	Name: ASD01148343
#	Creating user name:	WinNT
#	Creation time:	15. 06. 2019 19:02

#	Modifying user name:	WinNT
#	Modification time:	15. 06. 2019 19:02

#	Program:	/corina/corina34_cracker 3.40 0067  02.08.2006

@<TRIPOS>MOLECULE
ASD01148343
  46   48    0    0    0
SMALL
NO_CHARGES


@<TRIPOS>ATOM
   1 C1            -0.4097     1.8324    -0.0438 C.ar    
   2 C2            -0.4708     0.4516     0.0164 C.ar    
   3 C3             0.6950    -0.2891     0.0956 C.ar    
   4 C4             1.9200     0.3507     0.1146 C.ar    
   5 C5             1.9804     1.7305     0.0545 C.ar    
   6 C6             0.8158     2.4712    -0.0247 C.ar    
   7 C7             3.3163     2.4276     0.0758 C.3     
   8 O8             4.3313     1.6175    -0.5512 O.3     
   9 C9             3.3033     3.6777    -0.8359 C.3     
  10 C10            3.8455     3.1366    -2.1452 C.2     
  11 N11            4.3968     1.9927    -1.9129 N.2     
  12 C12            3.7576     3.8033    -3.4592 C.ar    
  13 C13            4.3019     3.1909    -4.5913 C.ar    
  14 C14            3.1254     5.0441    -3.5720 C.ar    
  15 C15            3.0435     5.6659    -4.7974 C.ar    
  16 C16            3.5926     5.0563    -5.9282 C.ar    
  17 C17            4.2200     3.8125    -5.8163 C.ar    
  18 C18            3.5047     5.7235    -7.2431 C.2     
  19 O19            4.0770     5.2494    -8.2045 O.2     
  20 N20            2.7898     6.8583    -7.3765 N.am    
  21 C21            4.8128     3.1552    -7.0360 C.3     
  22 C22            3.7159     2.7960     1.5060 C.3     
  23 F23            3.7865     1.6355     2.2841 F       
  24 F24            4.9650     3.4258     1.4937 F       
  25 F25            2.7615     3.6635     2.0481 F       
  26 Cl26          -2.0098    -0.3514    -0.0070 Cl      
  27 C27            2.7097     7.4671    -8.5763 C.2     
  28 O28            1.9957     8.6003    -8.7095 O.3     
  29 C29            1.9534     9.2013   -10.0306 C.3     
  30 O30            3.2817     6.9931    -9.5373 O.2     
  31 H31           -1.3193     2.4109    -0.1101 H       
  32 H32            0.6479    -1.3670     0.1430 H       
  33 H33            2.8301    -0.2273     0.1769 H       
  34 H34            0.8637     3.5491    -0.0716 H       
  35 H35            2.2880     4.0532    -0.9633 H       
  36 H36            3.9570     4.4538    -0.4378 H       
  37 H37            4.7870     2.2299    -4.5047 H       
  38 H38            2.7006     5.5151    -2.6979 H       
  39 H39            2.5544     6.6249    -4.8847 H       
  40 H40            2.3330     7.2368    -6.6091 H       
  41 H41            5.8099     3.5567    -7.2167 H       
  42 H42            4.8783     2.0794    -6.8732 H       
  43 H43            4.1789     3.3540    -7.9001 H       
  44 H44            2.9654     9.4537   -10.3476 H       
  45 H45            1.5169     8.4953   -10.7371 H       
  46 H46            1.3463    10.1060    -9.9990 H       
@<TRIPOS>BOND
   1    1    2 ar
   2    1    6 ar
   3    1   31 1
   4    2    3 ar
   5    2   26 1
   6    3    4 ar
   7    3   32 1
   8    4    5 ar
   9    4   33 1
  10    5    6 ar
  11    5    7 1
  12    6   34 1
  13    7    8 1
  14    7    9 1
  15    7   22 1
  16    8   11 1
  17    9   10 1
  18    9   35 1
  19    9   36 1
  20   10   11 2
  21   10   12 1
  22   12   13 ar
  23   12   14 ar
  24   13   17 ar
  25   13   37 1
  26   14   15 ar
  27   14   38 1
  28   15   16 ar
  29   15   39 1
  30   16   17 ar
  31   16   18 1
  32   17   21 1
  33   18   19 2
  34   18   20 am
  35   20   27 am
  36   20   40 1
  37   21   41 1
  38   21   42 1
  39   21   43 1
  40   22   23 1
  41   22   24 1
  42   22   25 1
  43   27   28 1
  44   27   30 2
  45   28   29 1
  46   29   44 1
  47   29   45 1
  48   29   46 1

#	End of record

