#	Name: ASD01912360
#	Creating user name:	WinNT
#	Creation time:	15. 06. 2019 19:59

#	Modifying user name:	WinNT
#	Modification time:	15. 06. 2019 19:59

#	Program:	/corina/corina34_cracker 3.40 0067  02.08.2006

@<TRIPOS>MOLECULE
ASD01912360
  51   54    0    0    0
SMALL
NO_CHARGES


@<TRIPOS>ATOM
   1 C1             0.0720     1.5065     0.9567 C.ar    
   2 C2             0.0918     0.1269     1.0576 C.ar    
   3 C3             1.3069    -0.5432     1.0142 C.ar    
   4 C4             2.4657     0.1980     0.8703 C.ar    
   5 C5             2.3736     1.5891     0.7740 C.ar    
   6 N6             1.1884     2.1913     0.8202 N.ar    
   7 C7             3.5635     2.3718     0.6246 C.1     
   8 C8             4.5389     3.0135     0.5021 C.1     
   9 C9             5.7288     3.7962     0.3527 C.2     
  10 N10            5.4055     7.5473    -1.0182 N.am    
  11 C11            6.7083     6.8770    -1.1192 C.3     
  12 C12            6.8915     5.9673     0.1022 C.3     
  13 C13            5.6463     5.1227     0.2605 C.2     
  14 C14            4.3052     5.8211     0.3120 C.3     
  15 C15            4.1868     6.7345    -0.9147 C.3     
  16 O16            2.8330     8.9441    -1.2496 O.3     
  17 C17            4.0224     9.5532    -1.0594 C.2     
  18 C18            3.7930    10.9039    -0.9145 C.2     
  19 C19            2.4115    11.0926    -1.0244 C.2     
  20 C20            1.8536     9.8636    -1.2303 C.2     
  21 C21            5.3297     8.8930    -1.0150 C.2     
  22 O22            6.3473     9.5597    -0.9751 O.2     
  23 C23            0.4125     9.5902    -1.4032 C.ar    
  24 C24           -0.0339     8.2829    -1.6075 C.ar    
  25 C25           -1.3813     8.0347    -1.7677 C.ar    
  26 C26           -2.2898     9.0775    -1.7264 C.ar    
  27 C27           -1.8544    10.3754    -1.5248 C.ar    
  28 C28           -0.5104    10.6372    -1.3574 C.ar    
  29 C29           -1.2463     2.2354     0.9973 C.3     
  30 H30           -0.8303    -0.4241     1.1696 H       
  31 H31            1.3464    -1.6197     1.0915 H       
  32 H32            3.4279    -0.2913     0.8332 H       
  33 H33            6.6930     3.3111     0.3148 H       
  34 H34            6.7415     6.2780    -2.0292 H       
  35 H35            7.5025     7.6233    -1.1414 H       
  36 H36            7.7565     5.3213    -0.0478 H       
  37 H37            7.0379     6.5761     0.9945 H       
  38 H38            3.5052     5.0810     0.2970 H       
  39 H39            4.2368     6.4177     1.2217 H       
  40 H40            3.3209     7.3870    -0.8023 H       
  41 H41            4.0752     6.1273    -1.8130 H       
  42 H42            4.5365    11.6693    -0.7477 H       
  43 H43            1.8851    12.0333    -0.9585 H       
  44 H44            0.6743     7.4681    -1.6403 H       
  45 H45           -1.7278     7.0242    -1.9262 H       
  46 H46           -3.3436     8.8776    -1.8525 H       
  47 H47           -2.5689    11.1847    -1.4940 H       
  48 H48           -0.1723    11.6500    -1.1956 H       
  49 H49           -1.4907     2.4870     2.0293 H       
  50 H50           -1.1745     3.1494     0.4077 H       
  51 H51           -2.0273     1.5971     0.5842 H       
@<TRIPOS>BOND
   1    1    2 ar
   2    1    6 ar
   3    1   29 1
   4    2    3 ar
   5    2   30 1
   6    3    4 ar
   7    3   31 1
   8    4    5 ar
   9    4   32 1
  10    5    6 ar
  11    5    7 1
  12    7    8 3
  13    8    9 1
  14    9   13 2
  15    9   33 1
  16   10   11 1
  17   10   15 1
  18   10   21 am
  19   11   12 1
  20   11   34 1
  21   11   35 1
  22   12   13 1
  23   12   36 1
  24   12   37 1
  25   13   14 1
  26   14   15 1
  27   14   38 1
  28   14   39 1
  29   15   40 1
  30   15   41 1
  31   16   17 1
  32   16   20 1
  33   17   18 2
  34   17   21 1
  35   18   19 1
  36   18   42 1
  37   19   20 2
  38   19   43 1
  39   20   23 1
  40   21   22 2
  41   23   24 ar
  42   23   28 ar
  43   24   25 ar
  44   24   44 1
  45   25   26 ar
  46   25   45 1
  47   26   27 ar
  48   26   46 1
  49   27   28 ar
  50   27   47 1
  51   28   48 1
  52   29   49 1
  53   29   50 1
  54   29   51 1

#	End of record

