#	Name: ASD04590644
#	Creating user name:	WinNT
#	Creation time:	15. 06. 2019 20:51

#	Modifying user name:	WinNT
#	Modification time:	15. 06. 2019 20:51

#	Program:	/corina/corina34_cracker 3.40 0067  02.08.2006

@<TRIPOS>MOLECULE
ASD04590644
  60   65    0    0    0
SMALL
NO_CHARGES


@<TRIPOS>ATOM
   1 N1            -0.0171     1.3232    -0.0119 N.ar    
   2 C2             0.0017    -0.0035    -0.0051 C.ar    
   3 N3             1.1298    -0.6949    -0.0122 N.ar    
   4 C4             2.3050    -0.0728    -0.0266 C.ar    
   5 C5             2.3189     1.3366    -0.0341 C.ar    
   6 C6             1.1071     2.0203    -0.0261 C.ar    
   7 N7             3.6030    -0.5192    -0.0373 N.pl3   
   8 C8             4.4821     0.5505    -0.0517 C.ar    
   9 C9             3.7312     1.7387    -0.0504 C.ar    
  10 C10            5.8693     0.6432    -0.0666 C.ar    
  11 N11            6.4620     1.8206    -0.0790 N.ar    
  12 C12            5.7843     2.9554    -0.0781 C.ar    
  13 C13            4.4062     2.9594    -0.0631 C.ar    
  14 N14           -1.2019    -0.6887     0.0103 N.pl3   
  15 C15           -2.4019     0.0120     0.1313 C.ar    
  16 C16            4.0020    -1.9288    -0.0332 C.3     
  17 C17            3.4019    -2.6443     1.1946 C.3     
  18 C18            3.4378    -2.6399    -1.2757 C.3     
  19 C19            2.5145    -3.7628    -0.7595 C.3     
  20 C20            2.1022    -3.2940     0.6580 C.3     
  21 N21           -2.3782     1.3196     0.3318 N.ar    
  22 C22           -3.4883     2.0230     0.4517 C.ar    
  23 C23           -4.7290     1.4088     0.3712 C.ar    
  24 C24           -4.7935     0.0322     0.1606 C.ar    
  25 C25           -3.6094    -0.6709     0.0340 C.ar    
  26 N26           -5.9022     2.1617     0.5004 N.3     
  27 C27           -6.6877     2.1298    -0.7412 C.3     
  28 C28           -7.9184     3.0264    -0.5862 C.3     
  29 C29           -6.7044     1.6953     1.6399 C.3     
  30 C30           -7.9351     2.5919     1.7949 C.3     
  31 N31           -8.7206     2.5601     0.5533 N.3     
  32 Cl32           6.8288    -0.8035    -0.0681 Cl      
  33 C33           -3.4068     3.5105     0.6792 C.3     
  34 H34            1.0848     3.1000    -0.0319 H       
  35 H35            6.3187     3.8939    -0.0887 H       
  36 H36            3.8590     3.8905    -0.0621 H       
  37 H37           -1.2104    -1.6559    -0.0630 H       
  38 H38            5.0890    -2.0088    -0.0186 H       
  39 H39            4.0863    -3.4084     1.5632 H       
  40 H40            3.1724    -1.9251     1.9808 H       
  41 H41            2.8671    -1.9362    -1.8817 H       
  42 H42            4.2509    -3.0658    -1.8636 H       
  43 H43            1.6374    -3.8598    -1.3994 H       
  44 H44            3.0556    -4.7075    -0.7066 H       
  45 H45            1.8111    -4.1431     1.2762 H       
  46 H46            1.2977    -2.5605     0.6036 H       
  47 H47           -5.7459    -0.4727     0.0940 H       
  48 H48           -3.6222    -1.7383    -0.1299 H       
  49 H49           -6.0761     2.4914    -1.5678 H       
  50 H50           -7.0060     1.1072    -0.9440 H       
  51 H51           -7.5999     4.0539    -0.4105 H       
  52 H52           -8.5178     2.9817    -1.4955 H       
  53 H53           -7.0229     0.6678     1.4642 H       
  54 H54           -6.1050     1.7401     2.5492 H       
  55 H55           -8.5467     2.2304     2.6215 H       
  56 H56           -7.6168     3.6145     1.9977 H       
  57 H57           -9.5662     3.1027     0.6464 H       
  58 H58           -3.3981     4.0251    -0.2816 H       
  59 H59           -4.2703     3.8373     1.2586 H       
  60 H60           -2.4931     3.7450     1.2253 H       
@<TRIPOS>BOND
   1    1    2 ar
   2    1    6 ar
   3    2    3 ar
   4    2   14 1
   5    3    4 ar
   6    4    5 ar
   7    4    7 1
   8    5    6 ar
   9    5    9 1
  10    6   34 1
  11    7    8 1
  12    7   16 1
  13    8    9 ar
  14    8   10 ar
  15    9   13 ar
  16   10   11 ar
  17   10   32 1
  18   11   12 ar
  19   12   13 ar
  20   12   35 1
  21   13   36 1
  22   14   15 1
  23   14   37 1
  24   15   21 ar
  25   15   25 ar
  26   16   18 1
  27   16   17 1
  28   16   38 1
  29   17   20 1
  30   17   39 1
  31   17   40 1
  32   18   19 1
  33   18   41 1
  34   18   42 1
  35   19   20 1
  36   19   43 1
  37   19   44 1
  38   20   45 1
  39   20   46 1
  40   21   22 ar
  41   22   23 ar
  42   22   33 1
  43   23   24 ar
  44   23   26 1
  45   24   25 ar
  46   24   47 1
  47   25   48 1
  48   26   29 1
  49   26   27 1
  50   27   28 1
  51   27   49 1
  52   27   50 1
  53   28   31 1
  54   28   51 1
  55   28   52 1
  56   29   30 1
  57   29   53 1
  58   29   54 1
  59   30   31 1
  60   30   55 1
  61   30   56 1
  62   31   57 1
  63   33   58 1
  64   33   59 1
  65   33   60 1

#	End of record

