#	Name: ASD03731273
#	Creating user name:	WinNT
#	Creation time:	15. 06. 2019 20:45

#	Modifying user name:	WinNT
#	Modification time:	15. 06. 2019 20:45

#	Program:	/corina/corina34_cracker 3.40 0067  02.08.2006

@<TRIPOS>MOLECULE
ASD03731273
  61   66    0    0    0
SMALL
NO_CHARGES


@<TRIPOS>ATOM
   1 N1            -0.0162     1.3436     0.0094 N.am    
   2 C2            -0.1430     0.0020     0.0365 C.2     
   3 O3             0.8437    -0.7037    -0.0460 O.2     
   4 N4            -1.3636    -0.5572     0.1550 N.am    
   5 C5            -1.5014    -2.0154     0.1844 C.3     
   6 C6            -2.9795    -2.3852     0.3244 C.3     
   7 O7             1.4444    -7.7577     2.1288 O.3     
   8 C8             1.7376    -9.1481     2.3611 C.3     
   9 O9             0.5461    -9.6476     2.9966 O.3     
  10 C10           -0.4679    -8.8477     2.5529 C.ar    
  11 C11            0.0851    -7.6854     2.0203 C.ar    
  12 C12           -1.8403    -9.0207     2.5596 C.ar    
  13 C13           -2.6773    -8.0386     2.0383 C.ar    
  14 C14           -2.1136    -6.8782     1.5166 C.ar    
  15 C15           -0.7452    -6.7055     1.5029 C.ar    
  16 O16           -4.0370    -8.0178     1.9332 O.3     
  17 C17           -3.2581    -6.0113     1.0641 C.3     
  18 C18           -4.4773    -6.6608     1.7328 C.3     
  19 N19           -3.1173    -3.8434     0.3538 N.am    
  20 C20           -3.0864    -4.5795     1.4827 C.2     
  21 C21           -3.3917    -5.9759    -0.4294 C.ar    
  22 C22           -3.5717    -6.9443    -1.3917 C.ar    
  23 C23           -3.6615    -6.5876    -2.7255 C.ar    
  24 C24           -3.5694    -5.2565    -3.0897 C.ar    
  25 C25           -3.3881    -4.2830    -2.1296 C.ar    
  26 C26           -3.2970    -4.6328    -0.7846 C.ar    
  27 O27           -2.9475    -4.1663     2.6145 O.2     
  28 C28            1.2581     1.9271     0.0081 C.ar    
  29 C29            1.4785     3.1123    -0.6809 C.ar    
  30 C30            2.7342     3.6866    -0.6818 C.ar    
  31 C31            3.7754     3.0798     0.0054 C.ar    
  32 C32            3.5559     1.8959     0.6937 C.ar    
  33 C33            2.2989     1.3234     0.7002 C.ar    
  34 C34            0.3477     3.7714    -1.4278 C.3     
  35 O35            5.0118     3.6457     0.0037 O.3     
  36 C36            6.0370     2.9669     0.7319 C.3     
  37 H37           -0.8068     1.9051    -0.0132 H       
  38 H38           -2.1507     0.0058     0.2208 H       
  39 H39           -1.1076    -2.4363    -0.7407 H       
  40 H40           -0.9449    -2.4159     1.0317 H       
  41 H41           -3.3733    -1.9643     1.2495 H       
  42 H42           -3.5360    -1.9846    -0.5229 H       
  43 H43            1.9140    -9.6651     1.4179 H       
  44 H44            2.5973    -9.2528     3.0230 H       
  45 H45           -2.2652    -9.9238     2.9721 H       
  46 H46           -0.3204    -5.8035     1.0879 H       
  47 H47           -5.3439    -6.6285     1.0726 H       
  48 H48           -4.6975    -6.1805     2.6862 H       
  49 H49           -3.6432    -7.9831    -1.1051 H       
  50 H50           -3.8036    -7.3467    -3.4804 H       
  51 H51           -3.6394    -4.9781    -4.1308 H       
  52 H52           -3.3165    -3.2457    -2.4218 H       
  53 H53            2.9058     4.6083    -1.2180 H       
  54 H54            4.3668     1.4240     1.2285 H       
  55 H55            2.1269     0.4040     1.2402 H       
  56 H56           -0.1695     4.4655    -0.7654 H       
  57 H57            0.7462     4.3152    -2.2843 H       
  58 H58           -0.3515     3.0102    -1.7740 H       
  59 H59            5.7498     2.8937     1.7809 H       
  60 H60            6.1723     1.9661     0.3216 H       
  61 H61            6.9707     3.5230     0.6488 H       
@<TRIPOS>BOND
   1    1    2 am
   2    1   28 1
   3    1   37 1
   4    2    3 2
   5    2    4 am
   6    4    5 1
   7    4   38 1
   8    5    6 1
   9    5   39 1
  10    5   40 1
  11    6   19 1
  12    6   41 1
  13    6   42 1
  14    7    8 1
  15    7   11 1
  16    8    9 1
  17    8   43 1
  18    8   44 1
  19    9   10 1
  20   10   11 ar
  21   10   12 ar
  22   11   15 ar
  23   12   13 ar
  24   12   45 1
  25   13   14 ar
  26   13   16 1
  27   14   15 ar
  28   14   17 1
  29   15   46 1
  30   16   18 1
  31   17   18 1
  32   17   20 1
  33   17   21 1
  34   18   47 1
  35   18   48 1
  36   19   20 am
  37   19   26 1
  38   20   27 2
  39   21   22 ar
  40   21   26 ar
  41   22   23 ar
  42   22   49 1
  43   23   24 ar
  44   23   50 1
  45   24   25 ar
  46   24   51 1
  47   25   26 ar
  48   25   52 1
  49   28   29 ar
  50   28   33 ar
  51   29   30 ar
  52   29   34 1
  53   30   31 ar
  54   30   53 1
  55   31   32 ar
  56   31   35 1
  57   32   33 ar
  58   32   54 1
  59   33   55 1
  60   34   56 1
  61   34   57 1
  62   34   58 1
  63   35   36 1
  64   36   59 1
  65   36   60 1
  66   36   61 1

#	End of record

