#	Name: ASD01810685
#	Creating user name:	WinNT
#	Creation time:	15. 06. 2019 19:25

#	Modifying user name:	WinNT
#	Modification time:	15. 06. 2019 19:25

#	Program:	/corina/corina34_cracker 3.40 0067  02.08.2006

@<TRIPOS>MOLECULE
ASD01810685
  60   65    0    0    0
SMALL
NO_CHARGES


@<TRIPOS>ATOM
   1 C1            -0.0167     1.3819     0.0096 C.ar    
   2 C2             0.0021    -0.0041     0.0020 C.ar    
   3 C3             1.1970    -0.6936    -0.0126 C.ar    
   4 C4             2.3990     0.0034    -0.0203 C.ar    
   5 C5             2.3751     1.4118    -0.0130 C.ar    
   6 C6             1.1661     2.0940     0.0022 C.ar    
   7 N7             3.6102    -0.6577    -0.0345 N.pl3   
   8 N8             4.7455    -0.0610    -0.0416 N.2     
   9 C9             4.8827     1.2395    -0.0363 C.2     
  10 C10            3.6768     2.1037    -0.0217 C.2     
  11 C11            3.5986    -2.1226    -0.0412 C.3     
  12 C12            3.5816    -2.6183    -1.4643 C.ar    
  13 C13            4.7719    -2.8584    -2.1374 C.ar    
  14 C14            4.7121    -3.3128    -3.4427 C.ar    
  15 C15            3.4687    -3.5126    -4.0332 C.ar    
  16 N16            2.3554    -3.2716    -3.3578 N.ar    
  17 C17            2.3822    -2.8437    -2.1099 C.ar    
  18 N18            3.3939    -3.9689    -5.3441 N.3     
  19 C19            6.0122     2.1720    -0.0422 C.2     
  20 N20            5.4770     3.4118    -0.0314 N.am    
  21 N21            4.0818     3.3389    -0.0194 N.2     
  22 O22            7.1978     1.8862    -0.0541 O.2     
  23 C23            6.2152     4.6009    -0.0321 C.ar    
  24 C24            7.1592     4.8334    -1.0238 C.ar    
  25 C25            7.8860     6.0080    -1.0216 C.ar    
  26 C26            7.6749     6.9515    -0.0332 C.ar    
  27 C27            6.7355     6.7230     0.9560 C.ar    
  28 C28            6.0012     5.5537     0.9560 C.ar    
  29 C29            1.9967    -4.1116    -5.7728 C.3     
  30 C30            1.9522    -4.4737    -7.2590 C.3     
  31 C31            2.7108    -5.7848    -7.4829 C.3     
  32 C32            4.1494    -5.6246    -6.9837 C.3     
  33 C33            4.1302    -5.2291    -5.5055 C.3     
  34 C34            4.9778     5.3056     2.0341 C.3     
  35 H35           -0.9605     1.9069     0.0169 H       
  36 H36           -0.9294    -0.5505     0.0080 H       
  37 H37            1.1981    -1.7735    -0.0177 H       
  38 H38            1.1510     3.1739     0.0077 H       
  39 H39            4.4903    -2.4954     0.4627 H       
  40 H40            2.7105    -2.4813     0.4791 H       
  41 H41            5.7230    -2.6938    -1.6531 H       
  42 H42            5.6186    -3.5094    -3.9959 H       
  43 H43            1.4539    -2.6576    -1.5902 H       
  44 H44            7.3250     4.0965    -1.7958 H       
  45 H45            8.6203     6.1894    -1.7925 H       
  46 H46            8.2451     7.8688    -0.0332 H       
  47 H47            6.5730     7.4620     1.7266 H       
  48 H48            1.5175    -4.9000    -5.1924 H       
  49 H49            1.4696    -3.1711    -5.6122 H       
  50 H50            0.9155    -4.5949    -7.5732 H       
  51 H51            2.4190    -3.6792    -7.8413 H       
  52 H52            2.2212    -6.5876    -6.9315 H       
  53 H53            2.7187    -6.0241    -8.5463 H       
  54 H54            4.6826    -6.5680    -7.1012 H       
  55 H55            4.6508    -4.8482    -7.5617 H       
  56 H56            5.1528    -5.1003    -5.1507 H       
  57 H57            3.6410    -6.0123    -4.9263 H       
  58 H58            4.0119     5.6974     1.7153 H       
  59 H59            4.8934     4.2341     2.2152 H       
  60 H60            5.2880     5.8058     2.9515 H       
@<TRIPOS>BOND
   1    1    2 ar
   2    1    6 ar
   3    1   35 1
   4    2    3 ar
   5    2   36 1
   6    3    4 ar
   7    3   37 1
   8    4    5 ar
   9    4    7 1
  10    5    6 ar
  11    5   10 1
  12    6   38 1
  13    7    8 1
  14    7   11 1
  15    8    9 2
  16    9   10 1
  17    9   19 1
  18   10   21 2
  19   11   12 1
  20   11   39 1
  21   11   40 1
  22   12   13 ar
  23   12   17 ar
  24   13   14 ar
  25   13   41 1
  26   14   15 ar
  27   14   42 1
  28   15   16 ar
  29   15   18 1
  30   16   17 ar
  31   17   43 1
  32   18   29 1
  33   18   33 1
  34   19   20 am
  35   19   22 2
  36   20   21 1
  37   20   23 1
  38   23   24 ar
  39   23   28 ar
  40   24   25 ar
  41   24   44 1
  42   25   26 ar
  43   25   45 1
  44   26   27 ar
  45   26   46 1
  46   27   28 ar
  47   27   47 1
  48   28   34 1
  49   29   30 1
  50   29   48 1
  51   29   49 1
  52   30   31 1
  53   30   50 1
  54   30   51 1
  55   31   32 1
  56   31   52 1
  57   31   53 1
  58   32   33 1
  59   32   54 1
  60   32   55 1
  61   33   56 1
  62   33   57 1
  63   34   58 1
  64   34   59 1
  65   34   60 1

#	End of record

