#	Name: ASD01915135
#	Creating user name:	WinNT
#	Creation time:	15. 06. 2019 20:04

#	Modifying user name:	WinNT
#	Modification time:	15. 06. 2019 20:04

#	Program:	/corina/corina34_cracker 3.40 0067  02.08.2006

@<TRIPOS>MOLECULE
ASD01915135
  38   41    0    0    0
SMALL
NO_CHARGES


@<TRIPOS>ATOM
   1 C1            -0.0169     1.3946     0.0097 C.ar    
   2 C2             0.0021    -0.0041     0.0020 C.ar    
   3 N3            -1.1423    -0.6908     0.0096 N.ar    
   4 C4            -2.3129    -0.0969     0.0244 C.ar    
   5 C5            -2.4138     1.2863     0.0328 C.ar    
   6 C6            -1.2676     2.0493     0.0306 C.ar    
   7 C7             1.3249     1.9575    -0.0001 C.2     
   8 C8             2.2983     1.0652    -0.0141 C.2     
   9 S9             1.6683    -0.5704    -0.0169 S.3     
  10 O10            1.5586     3.2990     0.0044 O.3     
  11 C11            1.6798     3.9214     1.2062 C.ar    
  12 C12            1.9182     5.2874     1.2604 C.ar    
  13 S13            4.0136     1.4679    -0.0293 S.o2    
  14 O14            4.6843     0.3457    -0.5859 O.2     
  15 O15            4.1132     2.7789    -0.5683 O.2     
  16 C16            4.5381     1.5789     1.6492 C.ar    
  17 C17            5.0174     0.4568     2.2989 C.ar    
  18 C18            4.4754     2.7893     2.3141 C.ar    
  19 C19            4.8871     2.8771     3.6305 C.ar    
  20 C20            5.3616     1.7532     4.2831 C.ar    
  21 C21            5.4285     0.5431     3.6157 C.ar    
  22 Cl22           5.8789     1.8627     5.9366 Cl      
  23 C23            1.5597     3.1929     2.3812 C.ar    
  24 C24            1.6833     3.8275     3.6018 C.ar    
  25 C25            1.9267     5.1887     3.6535 C.ar    
  26 C26            2.0411     5.9181     2.4832 C.ar    
  27 Cl27           2.0817     5.9838     5.1890 Cl      
  28 H28           -3.2120    -0.6952     0.0297 H       
  29 H29           -3.3837     1.7611     0.0450 H       
  30 H30           -1.3243     3.1278     0.0370 H       
  31 H31            2.0079     5.8569     0.3472 H       
  32 H32            5.0702    -0.4876     1.7777 H       
  33 H33            4.1050     3.6666     1.8046 H       
  34 H34            4.8388     3.8229     4.1496 H       
  35 H35            5.7985    -0.3347     4.1247 H       
  36 H36            1.3694     2.1306     2.3413 H       
  37 H37            1.5896     3.2610     4.5165 H       
  38 H38            2.2311     6.9804     2.5257 H       
@<TRIPOS>BOND
   1    1    2 ar
   2    1    7 1
   3    1    6 ar
   4    2    3 ar
   5    2    9 1
   6    3    4 ar
   7    4    5 ar
   8    4   28 1
   9    5    6 ar
  10    5   29 1
  11    6   30 1
  12    7    8 2
  13    7   10 1
  14    8    9 1
  15    8   13 1
  16   10   11 1
  17   11   12 ar
  18   11   23 ar
  19   12   26 ar
  20   12   31 1
  21   13   14 2
  22   13   15 2
  23   13   16 1
  24   16   17 ar
  25   16   18 ar
  26   17   21 ar
  27   17   32 1
  28   18   19 ar
  29   18   33 1
  30   19   20 ar
  31   19   34 1
  32   20   21 ar
  33   20   22 1
  34   21   35 1
  35   23   24 ar
  36   23   36 1
  37   24   25 ar
  38   24   37 1
  39   25   26 ar
  40   25   27 1
  41   26   38 1

#	End of record

