#	Name: ASD01209140
#	Creating user name:	WinNT
#	Creation time:	15. 06. 2019 19:11

#	Modifying user name:	WinNT
#	Modification time:	15. 06. 2019 19:11

#	Program:	/corina/corina34_cracker 3.40 0067  02.08.2006

@<TRIPOS>MOLECULE
ASD01209140
  68   71    0    0    0
SMALL
NO_CHARGES


@<TRIPOS>ATOM
   1 C1            -0.0335     1.3217    -0.1654 C.ar    
   2 C2            -0.1419    -0.0603    -0.1136 C.ar    
   3 C3            -1.3857    -0.6576     0.0351 C.ar    
   4 C4            -2.5245     0.1246     0.1330 C.ar    
   5 C5            -2.4198     1.5153     0.0819 C.ar    
   6 C6            -1.1669     2.1117    -0.0629 C.ar    
   7 O7             1.1871     1.9016    -0.3112 O.3     
   8 C8             1.8415     1.7202    -1.4833 C.ar    
   9 O9            -1.4865    -2.0119     0.0843 O.3     
  10 C10           -2.0985    -2.6442    -0.9512 C.ar    
  11 C11           -2.3424    -4.0086    -0.8860 C.ar    
  12 C12           -3.6325     2.3542     0.1854 C.2     
  13 N13           -3.5292     3.6971     0.1358 N.am    
  14 O14           -4.7229     1.8329     0.3154 O.2     
  15 C15           -4.6687     4.4853     0.2332 C.2     
  16 P16           -5.9071     8.5170     1.9824 P.3     
  17 O17           -6.8956     7.8267     2.8407 O.2     
  18 C18           -2.9645    -4.6489    -1.9401 C.ar    
  19 C19           -3.3442    -3.9313    -3.0595 C.ar    
  20 C20           -3.1020    -2.5717    -3.1271 C.ar    
  21 C21           -2.4856    -1.9254    -2.0732 C.ar    
  22 S22           -4.1377    -4.7511    -4.4022 S.o2    
  23 O23           -3.8273    -3.9503    -5.5343 O.2     
  24 O24           -3.6850    -6.0949    -4.3091 O.2     
  25 C25           -5.9067    -4.6470    -4.0145 C.3     
  26 C26           -6.0211     7.8690     0.2823 C.3     
  27 N27           -4.6805     5.7812     0.1970 N.2     
  28 S28           -6.2606     3.8877     0.4107 S.3     
  29 C29           -6.8874     5.5340     0.4339 C.2     
  30 C30           -5.8564     6.3712     0.3035 C.2     
  31 N31            2.9863     2.3515    -1.6879 N.ar    
  32 N32            1.3230     0.9117    -2.3936 N.ar    
  33 C33            1.9361     0.7117    -3.5487 C.ar    
  34 C34            3.1348     1.3610    -3.7987 C.ar    
  35 C35            3.6514     2.1965    -2.8209 C.ar    
  36 O36           -6.2130    10.0976     1.9759 O.3     
  37 C37           -6.6030    12.3335     2.8062 C.3     
  38 C38           -6.3031    10.8778     3.1697 C.3     
  39 O39           -4.4252     8.2595     2.5566 O.3     
  40 C40           -2.5780     8.1952     4.1136 C.3     
  41 C41           -4.0487     8.5600     3.9020 C.3     
  42 H42            0.7441    -0.6732    -0.1897 H       
  43 H43           -3.4922    -0.3409     0.2484 H       
  44 H44           -1.0815     3.1876    -0.1029 H       
  45 H45           -2.0457    -4.5695    -0.0121 H       
  46 H46           -2.6591     4.1131     0.0321 H       
  47 H47           -3.1543    -5.7109    -1.8901 H       
  48 H48           -3.3989    -2.0137    -4.0028 H       
  49 H49           -2.2967    -0.8634    -2.1265 H       
  50 H50           -6.2024    -3.6002    -3.9449 H       
  51 H51           -6.4806    -5.1351    -4.8022 H       
  52 H52           -6.1000    -5.1431    -3.0634 H       
  53 H53           -6.9944     8.1216    -0.1383 H       
  54 H54           -5.2350     8.3123    -0.3290 H       
  55 H55           -7.9251     5.8163     0.5329 H       
  56 H56            1.5081     0.0503    -4.2875 H       
  57 H57            3.6567     1.2161    -4.7331 H       
  58 H58            4.5833     2.7176    -2.9835 H       
  59 H59           -6.6717    12.9286     3.7169 H       
  60 H60           -5.8027    12.7231     2.1771 H       
  61 H61           -7.5482    12.3857     2.2659 H       
  62 H62           -7.1033    10.4882     3.7989 H       
  63 H63           -5.3579    10.8256     3.7101 H       
  64 H64           -2.2908     8.4244     5.1398 H       
  65 H65           -2.4370     7.1308     3.9260 H       
  66 H66           -1.9583     8.7705     3.4258 H       
  67 H67           -4.1896     9.6245     4.0896 H       
  68 H68           -4.6684     7.9847     4.5898 H       
@<TRIPOS>BOND
   1    1    2 ar
   2    1    7 1
   3    1    6 ar
   4    2    3 ar
   5    2   42 1
   6    3    4 ar
   7    3    9 1
   8    4    5 ar
   9    4   43 1
  10    5    6 ar
  11    5   12 1
  12    6   44 1
  13    7    8 1
  14    8   31 ar
  15    8   32 ar
  16    9   10 1
  17   10   11 ar
  18   10   21 ar
  19   11   18 ar
  20   11   45 1
  21   12   13 am
  22   12   14 2
  23   13   15 1
  24   13   46 1
  25   15   27 2
  26   15   28 1
  27   16   17 2
  28   16   36 1
  29   16   39 1
  30   16   26 1
  31   18   19 ar
  32   18   47 1
  33   19   20 ar
  34   19   22 1
  35   20   21 ar
  36   20   48 1
  37   21   49 1
  38   22   23 2
  39   22   24 2
  40   22   25 1
  41   25   50 1
  42   25   51 1
  43   25   52 1
  44   26   30 1
  45   26   53 1
  46   26   54 1
  47   27   30 1
  48   28   29 1
  49   29   30 2
  50   29   55 1
  51   31   35 ar
  52   32   33 ar
  53   33   34 ar
  54   33   56 1
  55   34   35 ar
  56   34   57 1
  57   35   58 1
  58   36   38 1
  59   37   38 1
  60   37   59 1
  61   37   60 1
  62   37   61 1
  63   38   62 1
  64   38   63 1
  65   39   41 1
  66   40   41 1
  67   40   64 1
  68   40   65 1
  69   40   66 1
  70   41   67 1
  71   41   68 1

#	End of record

