#	Name: ASD00990074
#	Creating user name:	WinNT
#	Creation time:	15. 06. 2019 18:54

#	Modifying user name:	WinNT
#	Modification time:	15. 06. 2019 18:54

#	Program:	/corina/corina34_cracker 3.40 0067  02.08.2006

@<TRIPOS>MOLECULE
ASD00990074
  55   58    0    0    0
SMALL
NO_CHARGES


@<TRIPOS>ATOM
   1 C1            -0.4115     0.7446    -1.2216 C.ar    
   2 C2            -0.2661    -0.6266    -1.3025 C.ar    
   3 C3             0.9858    -1.1976    -1.1597 C.ar    
   4 C4             2.1217    -0.4198    -0.9332 C.ar    
   5 C5             1.9507     0.9709    -0.8547 C.ar    
   6 C6             0.7039     1.5353    -0.9972 C.ar    
   7 S7             1.5420    -2.8764    -1.2027 S.3     
   8 C8             3.2435    -2.4725    -0.9204 C.2     
   9 N9             3.2958    -1.1413    -0.8132 N.am    
  10 Cl10           0.5262     3.2591    -0.8942 Cl      
  11 C11            4.5705    -0.4602    -0.5729 C.3     
  12 C12            5.2160    -0.1225    -1.8921 C.2     
  13 N13            6.4050     0.5115    -1.9178 N.am    
  14 C14            7.0326     0.8398    -3.2002 C.3     
  15 O15            4.6656    -0.4213    -2.9307 O.2     
  16 C16            7.0699     0.8725    -0.6632 C.3     
  17 C17            6.5339     2.1803    -3.6749 C.2     
  18 N18            7.1781     3.3635    -3.4848 N.pl3   
  19 C19            6.4037     4.3503    -4.0631 C.ar    
  20 C20            5.2811     3.6975    -4.5989 C.ar    
  21 N21            5.4274     2.3742    -4.3311 N.2     
  22 C22            6.5322     5.7265    -4.1911 C.ar    
  23 C23            5.5561     6.4490    -4.8448 C.ar    
  24 C24            4.4434     5.8078    -5.3767 C.ar    
  25 C25            4.3004     4.4436    -5.2585 C.ar    
  26 Cl26           3.2248     6.7340    -6.1956 Cl      
  27 Cl27           5.7177     8.1701    -5.0037 Cl      
  28 C28            8.4557     3.5554    -2.7942 C.3     
  29 C29            9.5922     3.5684    -3.8184 C.3     
  30 O30            4.1765    -3.2501    -0.8406 O.2     
  31 O31           10.8385     3.7556    -3.1447 O.3     
  32 C32           11.9714     3.7830    -4.0152 C.3     
  33 O33           12.0126     5.0344    -4.7040 O.3     
  34 C34           12.4499     6.1287    -3.8956 C.3     
  35 H35           -1.3855     1.1968    -1.3367 H       
  36 H36           -1.1290    -1.2523    -1.4767 H       
  37 H37            2.8073     1.6052    -0.6803 H       
  38 H38            4.3923     0.4563    -0.0104 H       
  39 H39            5.2300    -1.1142    -0.0025 H       
  40 H40            8.1148     0.8780    -3.0759 H       
  41 H41            6.7780     0.0763    -3.9353 H       
  42 H42            7.6493     0.0230    -0.3016 H       
  43 H43            7.7347     1.7191    -0.8348 H       
  44 H44            6.3204     1.1440     0.0802 H       
  45 H45            7.3943     6.2304    -3.7796 H       
  46 H46            3.4334     3.9517    -5.6741 H       
  47 H47            8.4396     4.5038    -2.2573 H       
  48 H48            8.6127     2.7405    -2.0875 H       
  49 H49            9.6083     2.6200    -4.3553 H       
  50 H50            9.4352     4.3833    -4.5251 H       
  51 H51           12.8825     3.6604    -3.4297 H       
  52 H52           11.8929     2.9721    -4.7394 H       
  53 H53           12.4535     7.0416    -4.4911 H       
  54 H54           11.7726     6.2491    -3.0501 H       
  55 H55           13.4569     5.9299    -3.5291 H       
@<TRIPOS>BOND
   1    1    2 ar
   2    1    6 ar
   3    1   35 1
   4    2    3 ar
   5    2   36 1
   6    3    4 ar
   7    3    7 1
   8    4    5 ar
   9    4    9 1
  10    5    6 ar
  11    5   37 1
  12    6   10 1
  13    7    8 1
  14    8    9 am
  15    8   30 2
  16    9   11 1
  17   11   12 1
  18   11   38 1
  19   11   39 1
  20   12   13 am
  21   12   15 2
  22   13   14 1
  23   13   16 1
  24   14   17 1
  25   14   40 1
  26   14   41 1
  27   16   42 1
  28   16   43 1
  29   16   44 1
  30   17   18 1
  31   17   21 2
  32   18   19 1
  33   18   28 1
  34   19   20 ar
  35   19   22 ar
  36   20   21 1
  37   20   25 ar
  38   22   23 ar
  39   22   45 1
  40   23   24 ar
  41   23   27 1
  42   24   25 ar
  43   24   26 1
  44   25   46 1
  45   28   29 1
  46   28   47 1
  47   28   48 1
  48   29   31 1
  49   29   49 1
  50   29   50 1
  51   31   32 1
  52   32   33 1
  53   32   51 1
  54   32   52 1
  55   33   34 1
  56   34   53 1
  57   34   54 1
  58   34   55 1

#	End of record

