#	Name: ASD02198416
#	Creating user name:	WinNT
#	Creation time:	15. 06. 2019 20:19

#	Modifying user name:	WinNT
#	Modification time:	15. 06. 2019 20:19

#	Program:	/corina/corina34_cracker 3.40 0067  02.08.2006

@<TRIPOS>MOLECULE
ASD02198416
  39   42    0    0    0
SMALL
NO_CHARGES


@<TRIPOS>ATOM
   1 C1            -0.2694     0.5101    -0.1325 C.2     
   2 C2            -0.0074    -0.7985    -0.1137 C.2     
   3 S3             1.2394     1.4138    -0.1157 S.3     
   4 C4             2.1683    -0.0794    -0.0831 C.2     
   5 C5             1.3383    -1.1231    -0.0864 C.2     
   6 S6             3.9271    -0.1807    -0.0518 S.o2    
   7 N7             4.4436    -0.2258    -1.6246 N.am    
   8 C8             4.8049     0.9539    -2.2739 C.ar    
   9 C9             6.0968     1.0948    -2.8270 C.ar    
  10 C10            6.4364     2.3040    -3.4814 C.ar    
  11 C11            5.4906     3.3380    -3.5695 C.ar    
  12 C12            4.2524     3.1742    -3.0263 C.ar    
  13 C13            3.9025     1.9893    -2.3858 C.ar    
  14 N14            6.9944     0.1097    -2.7406 N.ar    
  15 C15            8.1951     0.2346    -3.2517 C.ar    
  16 C16            8.5946     1.3969    -3.9081 C.ar    
  17 C17            7.7249     2.4424    -4.0323 C.ar    
  18 O18            4.3904     1.0497     0.4874 O.2     
  19 O19            4.2462    -1.4455     0.5118 O.2     
  20 Br20          -1.9981     1.2754    -0.1784 Br      
  21 S21            4.5308    -1.6722    -2.4263 S.o2    
  22 C22            2.9388    -1.9842    -3.1140 C.2     
  23 C23            2.5356    -1.5978    -4.3250 C.2     
  24 C24            1.2390    -1.9580    -4.6509 C.2     
  25 C25            0.5896    -2.6374    -3.7031 C.2     
  26 S26            1.6416    -2.8594    -2.3111 S.3     
  27 O27            5.4097    -1.4700    -3.5244 O.2     
  28 O28            4.7419    -2.6683    -1.4350 O.2     
  29 Br29          -1.1871    -3.2705    -3.8389 Br      
  30 H30           -0.7858    -1.5472    -0.1190 H       
  31 H31            1.6892    -2.1444    -0.0692 H       
  32 H32            5.7447     4.2622    -4.0672 H       
  33 H33            3.5301     3.9739    -3.0975 H       
  34 H34            2.9143     1.8833    -1.9632 H       
  35 H35            8.8930    -0.5847    -3.1614 H       
  36 H36            9.5909     1.4708    -4.3184 H       
  37 H37            8.0176     3.3507    -4.5381 H       
  38 H38            3.1721    -1.0454    -5.0004 H       
  39 H39            0.7874    -1.7080    -5.5995 H       
@<TRIPOS>BOND
   1    1    2 2
   2    1    3 1
   3    1   20 1
   4    2    5 1
   5    2   30 1
   6    3    4 1
   7    4    5 2
   8    4    6 1
   9    5   31 1
  10    6    7 am
  11    6   18 2
  12    6   19 2
  13    7    8 1
  14    7   21 am
  15    8    9 ar
  16    8   13 ar
  17    9   10 ar
  18    9   14 ar
  19   10   11 ar
  20   10   17 ar
  21   11   12 ar
  22   11   32 1
  23   12   13 ar
  24   12   33 1
  25   13   34 1
  26   14   15 ar
  27   15   16 ar
  28   15   35 1
  29   16   17 ar
  30   16   36 1
  31   17   37 1
  32   21   22 1
  33   21   27 2
  34   21   28 2
  35   22   23 2
  36   22   26 1
  37   23   24 1
  38   23   38 1
  39   24   25 2
  40   24   39 1
  41   25   26 1
  42   25   29 1

#	End of record

