#	Name: ASD05430353
#	Creating user name:	WinNT
#	Creation time:	15. 06. 2019 21:00

#	Modifying user name:	WinNT
#	Modification time:	15. 06. 2019 21:00

#	Program:	/corina/corina34_cracker 3.40 0067  02.08.2006

@<TRIPOS>MOLECULE
ASD05430353
  56   60    0    0    0
SMALL
NO_CHARGES


@<TRIPOS>ATOM
   1 C1            -0.0818     1.7585     0.7031 C.ar    
   2 C2            -0.0269     0.3802     0.9083 C.ar    
   3 C3            -1.1953    -0.3708     0.9190 C.ar    
   4 C4            -2.4141     0.2423     0.7266 C.ar    
   5 C5            -2.4769     1.6243     0.5202 C.ar    
   6 C6            -1.3012     2.3811     0.5150 C.ar    
   7 C7            -4.8924     1.5386     0.1764 C.2     
   8 C8            -3.7780     2.2810     0.3138 C.2     
   9 N9            -7.1175     0.9149    -0.1730 N.am    
  10 C10           -6.2463     2.0063    -0.1254 C.2     
  11 C11           -9.3611     0.1116     0.3644 C.ar    
  12 C12           -8.9985    -0.1702     1.6683 C.ar    
  13 C13          -10.4636    -0.5058    -0.1964 C.ar    
  14 C14          -11.2049    -1.4051     0.5463 C.ar    
  15 C15          -10.8427    -1.6881     1.8524 C.ar    
  16 C16           -9.7380    -1.0695     2.4128 C.ar    
  17 F17          -11.5669    -2.5668     2.5795 F       
  18 O18            1.0638     2.4905     0.6937 O.3     
  19 C19            0.9332     3.8970     0.4779 C.3     
  20 C20            1.5318    -1.1183     2.1135 C.2     
  21 N21            1.2102    -0.2487     1.1037 N.pl3   
  22 C22            2.8144    -1.4812     1.9220 C.2     
  23 N23            3.2682    -0.8537     0.8269 N.2     
  24 C24            2.3167    -0.1125     0.3277 C.2     
  25 C25            3.6036    -2.4285     2.7886 C.3     
  26 C26           -8.5575     1.0971    -0.4443 C.3     
  27 C27           -8.9185     2.5311    -0.0304 C.3     
  28 O28           -8.0138     3.4528    -0.6409 O.3     
  29 N29           -6.6444     3.2346    -0.3348 N.2     
  30 C30           -8.8359     0.8993    -1.9357 C.3     
  31 C31           -5.0218     0.0314     0.2936 C.3     
  32 C32           -6.4883    -0.2446     0.0500 C.2     
  33 O33           -7.0093    -1.3397     0.0533 O.2     
  34 H34           -1.1483    -1.4380     1.0783 H       
  35 H35           -3.3209    -0.3442     0.7347 H       
  36 H36           -1.3452     3.4484     0.3560 H       
  37 H37           -3.8385     3.3586     0.2727 H       
  38 H38           -8.1368     0.3125     2.1053 H       
  39 H39          -10.7459    -0.2849    -1.2152 H       
  40 H40          -12.0666    -1.8868     0.1082 H       
  41 H41           -9.4543    -1.2897     3.4314 H       
  42 H42            1.9197     4.3603     0.4941 H       
  43 H43            0.4645     4.0742    -0.4901 H       
  44 H44            0.3157     4.3296     1.2652 H       
  45 H45            0.8826    -1.4457     2.9121 H       
  46 H46            2.3960     0.5055    -0.5544 H       
  47 H47            3.4838    -3.4462     2.4171 H       
  48 H48            4.6580    -2.1533     2.7609 H       
  49 H49            3.2399    -2.3710     3.8145 H       
  50 H50           -9.9359     2.7555    -0.3508 H       
  51 H51           -8.8523     2.6229     1.0537 H       
  52 H52           -8.5393    -0.1073    -2.2304 H       
  53 H53           -9.9002     1.0354    -2.1278 H       
  54 H54           -8.2667     1.6290    -2.5115 H       
  55 H55           -4.4112    -0.4626    -0.4623 H       
  56 H56           -4.7334    -0.2985     1.2917 H       
@<TRIPOS>BOND
   1    1    2 ar
   2    1   18 1
   3    1    6 ar
   4    2    3 ar
   5    2   21 1
   6    3    4 ar
   7    3   34 1
   8    4    5 ar
   9    4   35 1
  10    5    6 ar
  11    5    8 1
  12    6   36 1
  13    7    8 2
  14    7   31 1
  15    7   10 1
  16    8   37 1
  17    9   10 1
  18    9   26 1
  19    9   32 am
  20   10   29 2
  21   11   12 ar
  22   11   13 ar
  23   11   26 1
  24   12   16 ar
  25   12   38 1
  26   13   14 ar
  27   13   39 1
  28   14   15 ar
  29   14   40 1
  30   15   16 ar
  31   15   17 1
  32   16   41 1
  33   18   19 1
  34   19   42 1
  35   19   43 1
  36   19   44 1
  37   20   21 1
  38   20   22 2
  39   20   45 1
  40   21   24 1
  41   22   23 1
  42   22   25 1
  43   23   24 2
  44   24   46 1
  45   25   47 1
  46   25   48 1
  47   25   49 1
  48   26   27 1
  49   26   30 1
  50   27   28 1
  51   27   50 1
  52   27   51 1
  53   28   29 1
  54   30   52 1
  55   30   53 1
  56   30   54 1
  57   31   32 1
  58   31   55 1
  59   31   56 1
  60   32   33 2

#	End of record

