#	Name: ASD01910490
#	Creating user name:	WinNT
#	Creation time:	15. 06. 2019 19:55

#	Modifying user name:	WinNT
#	Modification time:	15. 06. 2019 19:55

#	Program:	/corina/corina34_cracker 3.40 0067  02.08.2006

@<TRIPOS>MOLECULE
ASD01910490
  43   46    0    0    0
SMALL
NO_CHARGES


@<TRIPOS>ATOM
   1 C1            -0.8913     1.6550    -0.1982 C.ar    
   2 C2            -0.7205     0.1816    -0.1904 C.2     
   3 N3            -1.7071    -0.7406    -0.1197 N.2     
   4 C4            -1.1042    -1.9031    -0.1418 C.2     
   5 O5             0.2084    -1.6645    -0.2236 O.3     
   6 N6             0.4122    -0.4692    -0.2563 N.2     
   7 C7            -1.7661    -3.2558    -0.0850 C.3     
   8 C8            -1.4193    -4.0476    -1.3478 C.3     
   9 C9            -2.1176    -5.4088    -1.3064 C.3     
  10 C10           -1.6204    -6.1964    -0.0901 C.3     
  11 N11           -1.8182    -5.3798     1.1152 N.am    
  12 C12           -1.2650    -4.0190     1.1452 C.3     
  13 C13           -2.4942    -5.8697     2.1732 C.2     
  14 C14           -2.5739    -5.0888     3.4247 C.ar    
  15 O15           -3.0385    -6.9541     2.0977 O.2     
  16 C16            0.2253     2.4888    -0.2755 C.ar    
  17 C17            0.0599     3.8613    -0.2829 C.ar    
  18 C18           -1.2108     4.4073    -0.2136 C.ar    
  19 C19           -2.3217     3.5818    -0.1362 C.ar    
  20 C20           -2.1676     2.2113    -0.1340 C.ar    
  21 F21            1.4649     1.9559    -0.3427 F       
  22 F22           -1.3682     5.7491    -0.2210 F       
  23 C23           -3.7678    -5.0219     4.1435 C.ar    
  24 N24           -3.8403    -4.3262     5.2593 N.ar    
  25 C25           -2.7991    -3.6702     5.7407 C.ar    
  26 C26           -1.5768    -3.6881     5.0842 C.ar    
  27 C27           -1.4499    -4.4081     3.9120 C.ar    
  28 F28           -2.9268    -2.9709     6.8896 F       
  29 H29           -2.8468    -3.1296    -0.0200 H       
  30 H30           -1.7530    -3.4949    -2.2261 H       
  31 H31           -0.3405    -4.1943    -1.3996 H       
  32 H32           -3.1950    -5.2628    -1.2296 H       
  33 H33           -1.8890    -5.9629    -2.2168 H       
  34 H34           -2.1854    -7.1242     0.0003 H       
  35 H35           -0.5606    -6.4217    -0.2090 H       
  36 H36           -0.1762    -4.0667     1.1270 H       
  37 H37           -1.5954    -3.5100     2.0506 H       
  38 H38            0.9226     4.5083    -0.3423 H       
  39 H39           -3.3105     4.0129    -0.0817 H       
  40 H40           -3.0344     1.5699    -0.0737 H       
  41 H41           -4.6405    -5.5451     3.7814 H       
  42 H42           -0.7328    -3.1480     5.4872 H       
  43 H43           -0.5102    -4.4397     3.3807 H       
@<TRIPOS>BOND
   1    1    2 1
   2    1   16 ar
   3    1   20 ar
   4    2    3 1
   5    2    6 2
   6    3    4 2
   7    4    5 1
   8    4    7 1
   9    5    6 1
  10    7    8 1
  11    7   12 1
  12    7   29 1
  13    8    9 1
  14    8   30 1
  15    8   31 1
  16    9   10 1
  17    9   32 1
  18    9   33 1
  19   10   11 1
  20   10   34 1
  21   10   35 1
  22   11   12 1
  23   11   13 am
  24   12   36 1
  25   12   37 1
  26   13   14 1
  27   13   15 2
  28   14   23 ar
  29   14   27 ar
  30   16   17 ar
  31   16   21 1
  32   17   18 ar
  33   17   38 1
  34   18   19 ar
  35   18   22 1
  36   19   20 ar
  37   19   39 1
  38   20   40 1
  39   23   24 ar
  40   23   41 1
  41   24   25 ar
  42   25   26 ar
  43   25   28 1
  44   26   27 ar
  45   26   42 1
  46   27   43 1

#	End of record

