#	Name: ASD01916861
#	Creating user name:	WinNT
#	Creation time:	15. 06. 2019 20:08

#	Modifying user name:	WinNT
#	Modification time:	15. 06. 2019 20:08

#	Program:	/corina/corina34_cracker 3.40 0067  02.08.2006

@<TRIPOS>MOLECULE
ASD01916861
  58   62    0    0    0
SMALL
NO_CHARGES


@<TRIPOS>ATOM
   1 C1            -0.0010     1.3390     0.1668 C.ar    
   2 C2             0.0331    -0.0181     0.4321 C.ar    
   3 C3             1.2447    -0.6689     0.5794 C.ar    
   4 C4             2.4270     0.0335     0.4621 C.ar    
   5 C5             2.3985     1.4005     0.1945 C.ar    
   6 C6             1.1753     2.0511     0.0471 C.ar    
   7 C7             3.6666     2.1612     0.0678 C.2     
   8 N8             4.8960     1.6482     0.1889 N.2     
   9 N9             3.7637     3.4481    -0.1874 N.2     
  10 N10            5.1335     3.7555    -0.2223 N.pl3   
  11 C11            5.7918     2.5975     0.0183 C.2     
  12 C12            7.2603     2.4285     0.0792 C.ar    
  13 C13            5.7318     5.0689    -0.4736 C.3     
  14 C14            5.8613     5.8190     0.8271 C.2     
  15 O15            5.4903     5.3069     1.8620 O.2     
  16 N16            6.3893     7.0590     0.8402 N.am    
  17 C17            6.5247     7.8085     2.0984 C.3     
  18 C18            7.9668     8.3144     2.2108 C.3     
  19 N19            8.3140     9.0679     0.9984 N.3     
  20 C20            8.2748     8.2087    -0.1924 C.3     
  21 C21            6.8510     7.6961    -0.4025 C.3     
  22 C22            9.5496     9.6773     1.1300 C.ar    
  23 N23           10.0234    10.4020     0.1270 N.ar    
  24 N24           10.2283     9.5266     2.2579 N.ar    
  25 C25           11.2008    10.9976     0.2203 C.ar    
  26 C26           11.9397    10.8561     1.3844 C.ar    
  27 C27           11.4119    10.0956     2.4160 C.ar    
  28 C28            8.0834     3.5333     0.2985 C.ar    
  29 C29            9.4520     3.3704     0.3550 C.ar    
  30 C30           10.0095     2.1122     0.1939 C.ar    
  31 C31            9.1960     1.0113    -0.0242 C.ar    
  32 C32            7.8264     1.1627    -0.0767 C.ar    
  33 F33           11.3505     1.9579     0.2491 F       
  34 C34            9.8092    -0.3542    -0.1991 C.3     
  35 H35           -0.9496     1.8415     0.0487 H       
  36 H36           -0.8896    -0.5715     0.5250 H       
  37 H37            1.2657    -1.7286     0.7868 H       
  38 H38            3.3725    -0.4755     0.5780 H       
  39 H39            1.1476     3.1105    -0.1608 H       
  40 H40            6.7185     4.9396    -0.9182 H       
  41 H41            5.0966     5.6329    -1.1566 H       
  42 H42            5.8387     8.6556     2.0957 H       
  43 H43            6.2996     7.1541     2.9405 H       
  44 H44            8.0576     8.9641     3.0813 H       
  45 H45            8.6427     7.4660     2.3177 H       
  46 H46            8.5889     8.7817    -1.0648 H       
  47 H47            8.9464     7.3617    -0.0521 H       
  48 H48            6.8396     6.9692    -1.2146 H       
  49 H49            6.1933     8.5308    -0.6452 H       
  50 H50           11.5819    11.5867    -0.6007 H       
  51 H51           12.9041    11.3313     1.4869 H       
  52 H52           11.9622     9.9657     3.3361 H       
  53 H53            7.6499     4.5146     0.4235 H       
  54 H54           10.0900     4.2251     0.5247 H       
  55 H55            7.1934     0.3042    -0.2463 H       
  56 H56            9.8972    -0.8401     0.7726 H       
  57 H57            9.1755    -0.9563    -0.8503 H       
  58 H58           10.7982    -0.2539    -0.6461 H       
@<TRIPOS>BOND
   1    1    2 ar
   2    1    6 ar
   3    1   35 1
   4    2    3 ar
   5    2   36 1
   6    3    4 ar
   7    3   37 1
   8    4    5 ar
   9    4   38 1
  10    5    6 ar
  11    5    7 1
  12    6   39 1
  13    7    8 1
  14    7    9 2
  15    8   11 2
  16    9   10 1
  17   10   11 1
  18   10   13 1
  19   11   12 1
  20   12   28 ar
  21   12   32 ar
  22   13   14 1
  23   13   40 1
  24   13   41 1
  25   14   15 2
  26   14   16 am
  27   16   17 1
  28   16   21 1
  29   17   18 1
  30   17   42 1
  31   17   43 1
  32   18   19 1
  33   18   44 1
  34   18   45 1
  35   19   20 1
  36   19   22 1
  37   20   21 1
  38   20   46 1
  39   20   47 1
  40   21   48 1
  41   21   49 1
  42   22   23 ar
  43   22   24 ar
  44   23   25 ar
  45   24   27 ar
  46   25   26 ar
  47   25   50 1
  48   26   27 ar
  49   26   51 1
  50   27   52 1
  51   28   29 ar
  52   28   53 1
  53   29   30 ar
  54   29   54 1
  55   30   31 ar
  56   30   33 1
  57   31   32 ar
  58   31   34 1
  59   32   55 1
  60   34   56 1
  61   34   57 1
  62   34   58 1

#	End of record

