#	Name: ASD01885625
#	Creating user name:	WinNT
#	Creation time:	15. 06. 2019 19:49

#	Modifying user name:	WinNT
#	Modification time:	15. 06. 2019 19:49

#	Program:	/corina/corina34_cracker 3.40 0067  02.08.2006

@<TRIPOS>MOLECULE
ASD01885625
  31   33    0    0    0
SMALL
NO_CHARGES


@<TRIPOS>ATOM
   1 C1            -0.0168     1.3893     0.0097 C.ar    
   2 C2             0.0021    -0.0041     0.0020 C.ar    
   3 C3             1.1812    -0.6870    -0.0130 C.ar    
   4 C4             1.1391     2.1067     0.0025 C.ar    
   5 C5             3.6377    -0.6575    -0.0370 C.ar    
   6 C6             4.7951     0.1121    -0.0444 C.ar    
   7 C7             4.6947     1.5064    -0.0357 C.ar    
   8 N8             3.5239     2.1170    -0.0212 N.ar    
   9 C9             3.7040    -2.1351    -0.0452 C.2     
  10 C10            5.9343     2.3202    -0.0432 C.2     
  11 O11            7.0195     1.7741    -0.0566 O.2     
  12 N12            5.8570     3.6657    -0.0350 N.am    
  13 C13            3.2323    -2.9096    -1.1079 C.2     
  14 C14            3.3823    -4.2194    -0.9246 C.2     
  15 S15            4.1413    -4.5196     0.6317 S.3     
  16 C16            4.2295    -2.8492     0.9686 C.2     
  17 C17            2.3773     1.4363    -0.0130 C.ar    
  18 C18            2.3913     0.0187    -0.0208 C.ar    
  19 C19            2.6110    -2.3173    -2.3465 C.3     
  20 H20           -0.9641     1.9079     0.0170 H       
  21 H21           -0.9299    -0.5498     0.0084 H       
  22 H22            1.1828    -1.7670    -0.0184 H       
  23 H23            1.1072     3.1862     0.0083 H       
  24 H24            5.7646    -0.3635    -0.0563 H       
  25 H25            4.9906     4.1017    -0.0243 H       
  26 H26            6.6679     4.1981    -0.0399 H       
  27 H27            3.0823    -4.9831    -1.6268 H       
  28 H28            4.6433    -2.4243     1.8711 H       
  29 H29            3.3872    -2.1301    -3.0885 H       
  30 H30            1.8788    -3.0141    -2.7545 H       
  31 H31            2.1175    -1.3792    -2.0924 H       
@<TRIPOS>BOND
   1    1    2 ar
   2    1    4 ar
   3    1   20 1
   4    2    3 ar
   5    2   21 1
   6    3   18 ar
   7    3   22 1
   8    4   17 ar
   9    4   23 1
  10    5    6 ar
  11    5    9 1
  12    5   18 ar
  13    6    7 ar
  14    6   24 1
  15    7    8 ar
  16    7   10 1
  17    8   17 ar
  18    9   13 1
  19    9   16 2
  20   10   11 2
  21   10   12 am
  22   12   25 1
  23   12   26 1
  24   13   14 2
  25   13   19 1
  26   14   15 1
  27   14   27 1
  28   15   16 1
  29   16   28 1
  30   17   18 ar
  31   19   29 1
  32   19   30 1
  33   19   31 1

#	End of record

