#	Name: ASD07931942
#	Creating user name:	WinNT
#	Creation time:	15. 06. 2019 21:13

#	Modifying user name:	WinNT
#	Modification time:	15. 06. 2019 21:13

#	Program:	/corina/corina34_cracker 3.40 0067  02.08.2006

@<TRIPOS>MOLECULE
ASD07931942
  28   28    0    0    0
SMALL
NO_CHARGES


@<TRIPOS>ATOM
   1 C1            -0.0168     1.3906     0.0097 C.ar    
   2 C2             0.0021    -0.0041     0.0020 C.ar    
   3 N3             1.1285     2.0674     0.0024 N.ar    
   4 N4             1.1562    -0.6462    -0.0125 N.ar    
   5 C5             2.2907     0.0311    -0.0196 C.ar    
   6 C6             2.2754     1.4186    -0.0120 C.ar    
   7 C7            -1.3076     2.1156     0.0197 C.2     
   8 O8            -2.3520     1.4960     0.0213 O.2     
   9 O9            -1.3236     3.4622     0.0271 O.3     
  10 C10            3.6053    -0.7055    -0.0362 C.3     
  11 F11            3.4474    -1.9264    -0.7007 F       
  12 F12            4.5642     0.0666    -0.7007 F       
  13 C13           -2.6250     4.1061     0.0368 C.3     
  14 C14           -3.3960     3.6789     1.2874 C.3     
  15 C15           -2.4425     5.6251     0.0442 C.3     
  16 C16           -3.4078     3.6925    -1.2110 C.3     
  17 H17           -0.9251    -0.5578     0.0083 H       
  18 H18            3.2053     1.9678    -0.0183 H       
  19 H19            3.9321    -0.8886     0.9875 H       
  20 H20           -2.8383     3.9735     2.1763 H       
  21 H21           -4.3730     4.1622     1.2946 H       
  22 H22           -3.5260     2.5967     1.2821 H       
  23 H23           -1.8932     5.9294    -0.8468 H       
  24 H24           -3.4194     6.1084     0.0514 H       
  25 H25           -1.8848     5.9197     0.9331 H       
  26 H26           -3.5378     2.6103    -1.2163 H       
  27 H27           -4.3848     4.1758    -1.2038 H       
  28 H28           -2.8585     3.9968    -2.1020 H       
@<TRIPOS>BOND
   1    1    2 ar
   2    1    3 ar
   3    1    7 1
   4    2    4 ar
   5    2   17 1
   6    3    6 ar
   7    4    5 ar
   8    5    6 ar
   9    5   10 1
  10    6   18 1
  11    7    8 2
  12    7    9 1
  13    9   13 1
  14   10   11 1
  15   10   12 1
  16   10   19 1
  17   13   14 1
  18   13   16 1
  19   13   15 1
  20   14   20 1
  21   14   21 1
  22   14   22 1
  23   15   23 1
  24   15   24 1
  25   15   25 1
  26   16   26 1
  27   16   27 1
  28   16   28 1

#	End of record

