#	Name: ASD02448190
#	Creating user name:	WinNT
#	Creation time:	15. 06. 2019 20:22

#	Modifying user name:	WinNT
#	Modification time:	15. 06. 2019 20:22

#	Program:	/corina/corina34_cracker 3.40 0067  02.08.2006

@<TRIPOS>MOLECULE
ASD02448190
  80   86    0    0    0
SMALL
NO_CHARGES


@<TRIPOS>ATOM
   1 C1            -0.0495    -6.5829     3.1351 C.ar    
   2 C2             0.4370    -5.4514     2.5095 C.ar    
   3 C3             0.3489    -5.3268     1.1289 C.ar    
   4 C4            -0.2282    -6.3397     0.3779 C.ar    
   5 C5            -0.7163    -7.4757     1.0090 C.ar    
   6 C6            -0.6252    -7.5942     2.3903 C.ar    
   7 N7            -1.2987    -8.4981     0.2563 N.am    
   8 C8            -1.4107    -9.9213     0.6012 C.3     
   9 C9            -2.1062   -10.6886    -0.4765 C.2     
  10 N10           -2.4889    -9.9547    -1.5309 N.am    
  11 S11           -2.0330    -8.3809    -1.2372 S.o2    
  12 O12           -2.3081   -11.8823    -0.4030 O.2     
  13 O13           -3.2237    -7.6239    -1.0688 O.2     
  14 O14           -1.0137    -8.0580    -2.1732 O.2     
  15 N15            0.8426    -4.1777     0.4952 N.pl3   
  16 C16            1.7739    -4.1404    -0.5081 C.2     
  17 C17            0.4816    -2.8942     0.7584 C.2     
  18 N18            1.1499    -2.0984    -0.0289 N.2     
  19 C19            1.9563    -2.8316    -0.8232 C.2     
  20 C20            2.8793    -2.3027    -1.8572 C.ar    
  21 C21            2.9684    -0.9284    -2.0787 C.ar    
  22 C22            3.6642    -3.1765    -2.6065 C.ar    
  23 C23            4.5214    -2.6795    -3.5675 C.ar    
  24 C24            4.6028    -1.3154    -3.7876 C.ar    
  25 C25            3.8292    -0.4417    -3.0426 C.ar    
  26 C26           -0.5265    -2.4615     1.7916 C.3     
  27 C27           -1.8704    -2.2762     1.1353 C.ar    
  28 C28           -2.7139    -3.3606     0.9741 C.ar    
  29 C29           -2.2582    -1.0212     0.7016 C.ar    
  30 C30           -3.4880    -0.8455     0.1004 C.ar    
  31 C31           -4.3395    -1.9356    -0.0698 C.ar    
  32 C32           -3.9456    -3.1968     0.3734 C.ar    
  33 C33           -5.6625    -1.7530    -0.7153 C.ar    
  34 Cl34           5.6835    -0.6974    -4.9975 Cl      
  35 Cl35           1.9988     0.1679    -1.1450 Cl      
  36 C36           -6.5167    -2.8467    -0.8860 C.ar    
  37 C37           -7.7407    -2.6254    -1.4939 C.ar    
  38 C38           -8.0457    -1.3273    -1.8979 C.ar    
  39 N39           -7.1750    -0.3505    -1.6959 N.ar    
  40 N40           -6.0416    -0.5508    -1.1277 N.ar    
  41 O41           -9.2337    -1.0644    -2.4982 O.3     
  42 C42           -9.4793     0.2888    -2.8860 C.3     
  43 C43          -10.8582     0.3894    -3.5413 C.3     
  44 C44          -11.1736     1.8557    -3.8434 C.3     
  45 C45          -12.5526     1.9562    -4.4987 C.3     
  46 C46          -12.5577     1.1545    -5.8017 C.3     
  47 C47          -12.2423    -0.3119    -5.4996 C.3     
  48 C48          -10.8634    -0.4124    -4.8443 C.3     
  49 H49            0.0243    -6.6792     4.2083 H       
  50 H50            0.8861    -4.6625     3.0946 H       
  51 H51           -0.2981    -6.2448    -0.6957 H       
  52 H52           -1.0047    -8.4777     2.8822 H       
  53 H53           -0.4120   -10.3334     0.7452 H       
  54 H54           -1.9730   -10.0204     1.5297 H       
  55 H55           -2.9500   -10.2806    -2.3196 H       
  56 H56            2.2678    -4.9874    -0.9610 H       
  57 H57            3.6023    -4.2410    -2.4354 H       
  58 H58            5.1301    -3.3564    -4.1486 H       
  59 H59            3.8961     0.6218    -3.2184 H       
  60 H60           -0.6027    -3.2242     2.5666 H       
  61 H61           -0.2075    -1.5199     2.2385 H       
  62 H62           -2.4078    -4.3373     1.3186 H       
  63 H63           -1.5975    -0.1772     0.8341 H       
  64 H64           -3.7901     0.1348    -0.2372 H       
  65 H65           -4.6015    -4.0449     0.2440 H       
  66 H66           -6.2304    -3.8338    -0.5542 H       
  67 H67           -8.4381    -3.4349    -1.6507 H       
  68 H68           -9.4478     0.9306    -2.0055 H       
  69 H69           -8.7158     0.6077    -3.5955 H       
  70 H70          -11.6123    -0.0125    -2.8644 H       
  71 H71          -11.1700     2.4269    -2.9151 H       
  72 H72          -10.4196     2.2575    -4.5202 H       
  73 H73          -13.3066     1.5544    -3.8218 H       
  74 H74          -12.7772     3.0009    -4.7139 H       
  75 H75          -13.5401     1.2261    -6.2685 H       
  76 H76          -11.8037     1.5563    -6.4785 H       
  77 H77          -12.9963    -0.7137    -4.8228 H       
  78 H78          -12.2460    -0.8831    -6.4279 H       
  79 H79          -10.1093    -0.0106    -5.5211 H       
  80 H80          -10.6387    -1.4570    -4.6291 H       
@<TRIPOS>BOND
   1    1    2 ar
   2    1    6 ar
   3    1   49 1
   4    2    3 ar
   5    2   50 1
   6    3    4 ar
   7    3   15 1
   8    4    5 ar
   9    4   51 1
  10    5    6 ar
  11    5    7 1
  12    6   52 1
  13    7    8 1
  14    7   11 am
  15    8    9 1
  16    8   53 1
  17    8   54 1
  18    9   10 am
  19    9   12 2
  20   10   11 am
  21   10   55 1
  22   11   13 2
  23   11   14 2
  24   15   16 1
  25   15   17 1
  26   16   19 2
  27   16   56 1
  28   17   18 2
  29   17   26 1
  30   18   19 1
  31   19   20 1
  32   20   21 ar
  33   20   22 ar
  34   21   35 1
  35   21   25 ar
  36   22   23 ar
  37   22   57 1
  38   23   24 ar
  39   23   58 1
  40   24   25 ar
  41   24   34 1
  42   25   59 1
  43   26   27 1
  44   26   60 1
  45   26   61 1
  46   27   28 ar
  47   27   29 ar
  48   28   32 ar
  49   28   62 1
  50   29   30 ar
  51   29   63 1
  52   30   31 ar
  53   30   64 1
  54   31   32 ar
  55   31   33 1
  56   32   65 1
  57   33   36 ar
  58   33   40 ar
  59   36   37 ar
  60   36   66 1
  61   37   38 ar
  62   37   67 1
  63   38   39 ar
  64   38   41 1
  65   39   40 ar
  66   41   42 1
  67   42   43 1
  68   42   68 1
  69   42   69 1
  70   43   44 1
  71   43   48 1
  72   43   70 1
  73   44   45 1
  74   44   71 1
  75   44   72 1
  76   45   46 1
  77   45   73 1
  78   45   74 1
  79   46   47 1
  80   46   75 1
  81   46   76 1
  82   47   48 1
  83   47   77 1
  84   47   78 1
  85   48   79 1
  86   48   80 1

#	End of record

