#	Name: ASD01915466
#	Creating user name:	WinNT
#	Creation time:	15. 06. 2019 20:05

#	Modifying user name:	WinNT
#	Modification time:	15. 06. 2019 20:05

#	Program:	/corina/corina34_cracker 3.40 0067  02.08.2006

@<TRIPOS>MOLECULE
ASD01915466
  43   45    0    0    0
SMALL
NO_CHARGES


@<TRIPOS>ATOM
   1 C1            -0.3946     1.7235     0.1099 C.ar    
   2 C2            -0.5256     0.3732     0.3792 C.ar    
   3 N3             0.5184    -0.3554     0.7132 N.ar    
   4 C4             1.7356     0.1677     0.8061 C.ar    
   5 C5             1.9473     1.5187     0.5503 C.ar    
   6 C6             0.8626     2.3161     0.1945 C.ar    
   7 C7            -1.8839    -0.2734     0.2892 C.3     
   8 O8             1.0267     3.6385    -0.0637 O.3     
   9 C9             2.2778     4.1587     0.0420 C.ar    
  10 C10            3.2083     3.9636    -0.9685 C.ar    
  11 N11            4.4234     4.4654    -0.8715 N.ar    
  12 C12            4.8037     5.1671     0.1779 C.ar    
  13 C13            3.9316     5.4051     1.2272 C.ar    
  14 C14            2.6414     4.8991     1.1622 C.ar    
  15 C15            2.8783    -0.6952     1.1859 C.2     
  16 N16            2.6800    -2.0047     1.4354 N.am    
  17 O17            3.9943    -0.2223     1.2724 O.2     
  18 C18            3.7673    -2.8379     1.6891 C.ar    
  19 C19            3.5681    -4.2064     1.8310 C.ar    
  20 C20            4.6570    -5.0226     2.0828 C.ar    
  21 C21            5.9123    -4.4393     2.1845 C.ar    
  22 C22            6.0371    -3.0722     2.0325 C.ar    
  23 N23            4.9817    -2.3198     1.7876 N.ar    
  24 C24            7.3973    -2.4327     2.1417 C.3     
  25 C25            7.6806    -1.6177     0.8782 C.3     
  26 F26            4.3307     6.1254     2.2982 F       
  27 H27           -1.2574     2.3110    -0.1673 H       
  28 H28            2.9377     1.9427     0.6269 H       
  29 H29           -2.0439    -0.6431    -0.7236 H       
  30 H30           -1.9379    -1.1046     0.9922 H       
  31 H31           -2.6523     0.4600     0.5339 H       
  32 H32            2.9341     3.3940    -1.8441 H       
  33 H33            5.8084     5.5611     0.2200 H       
  34 H34            1.9393     5.0690     1.9651 H       
  35 H35            1.7803    -2.3671     1.4383 H       
  36 H36            2.5769    -4.6269     1.7461 H       
  37 H37            4.5327    -6.0892     2.1980 H       
  38 H38            6.7825    -5.0481     2.3807 H       
  39 H39            7.4210    -1.7755     3.0110 H       
  40 H40            8.1555    -3.2080     2.2516 H       
  41 H41            7.6569    -2.2750     0.0090 H       
  42 H42            6.9224    -0.8424     0.7683 H       
  43 H43            8.6644    -1.1552     0.9572 H       
@<TRIPOS>BOND
   1    1    2 ar
   2    1    6 ar
   3    1   27 1
   4    2    3 ar
   5    2    7 1
   6    3    4 ar
   7    4    5 ar
   8    4   15 1
   9    5    6 ar
  10    5   28 1
  11    6    8 1
  12    7   29 1
  13    7   30 1
  14    7   31 1
  15    8    9 1
  16    9   10 ar
  17    9   14 ar
  18   10   11 ar
  19   10   32 1
  20   11   12 ar
  21   12   13 ar
  22   12   33 1
  23   13   14 ar
  24   13   26 1
  25   14   34 1
  26   15   16 am
  27   15   17 2
  28   16   18 1
  29   16   35 1
  30   18   19 ar
  31   18   23 ar
  32   19   20 ar
  33   19   36 1
  34   20   21 ar
  35   20   37 1
  36   21   22 ar
  37   21   38 1
  38   22   23 ar
  39   22   24 1
  40   24   25 1
  41   24   39 1
  42   24   40 1
  43   25   41 1
  44   25   42 1
  45   25   43 1

#	End of record

