#	Name: ASD01903350
#	Creating user name:	WinNT
#	Creation time:	15. 06. 2019 19:54

#	Modifying user name:	WinNT
#	Modification time:	15. 06. 2019 19:54

#	Program:	/corina/corina34_cracker 3.40 0067  02.08.2006

@<TRIPOS>MOLECULE
ASD01903350
  42   45    0    0    0
SMALL
NO_CHARGES


@<TRIPOS>ATOM
   1 C1            -0.0166     1.3749     0.0096 C.ar    
   2 C2             0.0021    -0.0041     0.0020 C.ar    
   3 C3             1.2092    -0.6938    -0.0128 C.ar    
   4 C4             2.3938     0.0060    -0.0203 C.ar    
   5 C5             2.3724     1.3962    -0.0131 C.ar    
   6 C6             1.1737     2.0781     0.0020 C.ar    
   7 S7             1.5050    -2.4325    -0.0243 S.o2    
   8 N8             3.1527    -2.6315    -0.0407 N.am    
   9 S9             3.7737    -1.0924    -0.0388 S.o2    
  10 O10            4.4143    -0.9143    -1.2946 O.2     
  11 O11            4.4377    -0.9269     1.2066 O.2     
  12 O12            1.0515    -2.9272     1.2282 O.2     
  13 O13            1.0280    -2.9146    -1.2730 O.2     
  14 C14            3.8646    -3.8368    -0.0531 C.ar    
  15 C15            5.2531    -3.8230    -0.0660 C.ar    
  16 C16            5.9554    -5.0120    -0.0787 C.ar    
  17 C17            5.2731    -6.2214    -0.0780 C.ar    
  18 C18            3.8846    -6.2352    -0.0646 C.ar    
  19 C19            3.1824    -5.0463    -0.0466 C.ar    
  20 N20            5.9850    -7.4267    -0.0914 N.pl3   
  21 C21            5.2652    -8.7027    -0.0906 C.3     
  22 C22            6.2557    -9.8383    -0.1064 C.ar    
  23 C23            6.6378   -10.4278     1.0835 C.ar    
  24 C24            7.5498   -11.4721     1.0581 C.ar    
  25 C25            8.0453   -11.8856    -0.1688 C.ar    
  26 C26            7.6167   -11.2478    -1.3179 C.ar    
  27 N27            6.7439   -10.2615    -1.2562 N.ar    
  28 H28           -0.9582     1.9038     0.0169 H       
  29 H29           -0.9283    -0.5525     0.0080 H       
  30 H30            3.3017     1.9464    -0.0190 H       
  31 H31            1.1649     3.1580     0.0072 H       
  32 H32            5.7838    -2.8824    -0.0666 H       
  33 H33            7.0352    -5.0012    -0.0895 H       
  34 H34            3.3539    -7.1758    -0.0640 H       
  35 H35            2.1025    -5.0570    -0.0361 H       
  36 H36            6.9549    -7.4171    -0.1011 H       
  37 H37            4.6481    -8.7712     0.8053 H       
  38 H38            4.6302    -8.7621    -0.9746 H       
  39 H39            6.2314   -10.0795     2.0216 H       
  40 H40            7.8669   -11.9516     1.9724 H       
  41 H41            8.7574   -12.6956    -0.2262 H       
  42 H42            7.9982   -11.5638    -2.2776 H       
@<TRIPOS>BOND
   1    1    2 ar
   2    1    6 ar
   3    1   28 1
   4    2    3 ar
   5    2   29 1
   6    3    4 ar
   7    3    7 1
   8    4    5 ar
   9    4    9 1
  10    5    6 ar
  11    5   30 1
  12    6   31 1
  13    7    8 am
  14    7   12 2
  15    7   13 2
  16    8    9 am
  17    8   14 1
  18    9   10 2
  19    9   11 2
  20   14   15 ar
  21   14   19 ar
  22   15   16 ar
  23   15   32 1
  24   16   17 ar
  25   16   33 1
  26   17   18 ar
  27   17   20 1
  28   18   19 ar
  29   18   34 1
  30   19   35 1
  31   20   21 1
  32   20   36 1
  33   21   22 1
  34   21   37 1
  35   21   38 1
  36   22   23 ar
  37   22   27 ar
  38   23   24 ar
  39   23   39 1
  40   24   25 ar
  41   24   40 1
  42   25   26 ar
  43   25   41 1
  44   26   27 ar
  45   26   42 1

#	End of record

