#	Name: ASD02500058
#	Creating user name:	WinNT
#	Creation time:	15. 06. 2019 20:22

#	Modifying user name:	WinNT
#	Modification time:	15. 06. 2019 20:22

#	Program:	/corina/corina34_cracker 3.40 0067  02.08.2006

@<TRIPOS>MOLECULE
ASD02500058
  64   68    0    0    0
SMALL
NO_CHARGES


@<TRIPOS>ATOM
   1 N1             0.8504     4.2828    -1.6748 N.ar    
   2 C2             1.8605     4.1376    -0.8520 C.ar    
   3 C3             3.0500     3.5315    -1.2510 C.ar    
   4 C4             3.1845     3.0700    -2.5293 C.ar    
   5 C5             2.0975     3.2272    -3.4101 C.ar    
   6 C6             2.1622     2.7784    -4.7387 C.ar    
   7 C7             1.0894     2.9494    -5.5597 C.ar    
   8 C8            -0.0726     3.5646    -5.0988 C.ar    
   9 C9            -0.1696     4.0116    -3.8169 C.ar    
  10 C10            0.9167     3.8533    -2.9390 C.ar    
  11 S11           -1.6508     4.7867    -3.2603 S.o2    
  12 O12           -1.2560     5.9888    -2.6135 O.2     
  13 O13           -2.5564     4.7543    -4.3549 O.2     
  14 N14           -2.3009     3.8160    -2.0867 N.am    
  15 C15           -2.7021     2.5217    -2.3985 C.ar    
  16 C16           -2.3431     1.4639    -1.5676 C.ar    
  17 C17           -2.7387     0.1819    -1.8735 C.ar    
  18 C18           -3.5018    -0.0577    -3.0200 C.ar    
  19 C19           -3.8607     1.0065    -3.8523 C.ar    
  20 C20           -3.4669     2.2870    -3.5379 C.ar    
  21 C21           -3.9272    -1.4310    -3.3510 C.2     
  22 O22           -5.0425    -1.6325    -3.7915 O.2     
  23 N23           -3.0795    -2.4622    -3.1654 N.am    
  24 C24           -3.4534    -3.8278    -3.5634 C.3     
  25 C25           -2.3294    -4.4078    -4.4284 C.3     
  26 N26           -1.0544    -4.2982    -3.7070 N.3     
  27 C27           -0.6987    -2.8938    -3.4640 C.3     
  28 C28           -1.7536    -2.2508    -2.5649 C.3     
  29 C29           -0.0335    -4.9619    -4.3912 C.ar    
  30 C30            0.5790    -6.0715    -3.8222 C.ar    
  31 C31            1.5876    -6.7256    -4.5016 C.ar    
  32 C32            1.9887    -6.2770    -5.7469 C.ar    
  33 C33            1.3813    -5.1730    -6.3160 C.ar    
  34 C34            0.3678    -4.5175    -5.6445 C.ar    
  35 C35            0.1434    -6.5605    -2.4650 C.3     
  36 C36           -1.0519    -7.5026    -2.6217 C.3     
  37 H37            1.7684     4.4978     0.1620 H       
  38 H38            3.8649     3.4269    -0.5500 H       
  39 H39            4.0995     2.5980    -2.8556 H       
  40 H40            3.0578     2.3007    -5.1076 H       
  41 H41            1.1400     2.6038    -6.5817 H       
  42 H42           -0.9097     3.6892    -5.7697 H       
  43 H43           -2.4017     4.1503    -1.1817 H       
  44 H44           -1.7532     1.6497    -0.6822 H       
  45 H45           -2.4596    -0.6383    -1.2287 H       
  46 H46           -4.4500     0.8245    -4.7389 H       
  47 H47           -3.7478     3.1103    -4.1780 H       
  48 H48           -3.5869    -4.4447    -2.6746 H       
  49 H49           -4.3801    -3.8014    -4.1366 H       
  50 H50           -2.5380    -5.4563    -4.6410 H       
  51 H51           -2.2668    -3.8521    -5.3640 H       
  52 H52            0.2752    -2.8442    -2.9770 H       
  53 H53           -0.6589    -2.3591    -4.4130 H       
  54 H54           -1.5570    -1.1822    -2.4784 H       
  55 H55           -1.7205    -2.7131    -1.5784 H       
  56 H56            2.0642    -7.5882    -4.0598 H       
  57 H57            2.7783    -6.7899    -6.2758 H       
  58 H58            1.6968    -4.8252    -7.2886 H       
  59 H59           -0.1093    -3.6578    -6.0915 H       
  60 H60            0.9665    -7.0938    -1.9895 H       
  61 H61           -0.1433    -5.7095    -1.8470 H       
  62 H62           -1.4222    -7.7868    -1.6367 H       
  63 H63           -1.8431    -6.9968    -3.1752 H       
  64 H64           -0.7421    -8.3953    -3.1649 H       
@<TRIPOS>BOND
   1    1    2 ar
   2    1   10 ar
   3    2    3 ar
   4    2   37 1
   5    3    4 ar
   6    3   38 1
   7    4    5 ar
   8    4   39 1
   9    5    6 ar
  10    5   10 ar
  11    6    7 ar
  12    6   40 1
  13    7    8 ar
  14    7   41 1
  15    8    9 ar
  16    8   42 1
  17    9   10 ar
  18    9   11 1
  19   11   12 2
  20   11   13 2
  21   11   14 am
  22   14   15 1
  23   14   43 1
  24   15   16 ar
  25   15   20 ar
  26   16   17 ar
  27   16   44 1
  28   17   18 ar
  29   17   45 1
  30   18   19 ar
  31   18   21 1
  32   19   20 ar
  33   19   46 1
  34   20   47 1
  35   21   22 2
  36   21   23 am
  37   23   24 1
  38   23   28 1
  39   24   25 1
  40   24   48 1
  41   24   49 1
  42   25   26 1
  43   25   50 1
  44   25   51 1
  45   26   27 1
  46   26   29 1
  47   27   28 1
  48   27   52 1
  49   27   53 1
  50   28   54 1
  51   28   55 1
  52   29   30 ar
  53   29   34 ar
  54   30   31 ar
  55   30   35 1
  56   31   32 ar
  57   31   56 1
  58   32   33 ar
  59   32   57 1
  60   33   34 ar
  61   33   58 1
  62   34   59 1
  63   35   36 1
  64   35   60 1
  65   35   61 1
  66   36   62 1
  67   36   63 1
  68   36   64 1

#	End of record

