#	Name: ASD02500019
#	Creating user name:	WinNT
#	Creation time:	15. 06. 2019 20:22

#	Modifying user name:	WinNT
#	Modification time:	15. 06. 2019 20:22

#	Program:	/corina/corina34_cracker 3.40 0067  02.08.2006

@<TRIPOS>MOLECULE
ASD02500019
  41   43    0    0    0
SMALL
NO_CHARGES


@<TRIPOS>ATOM
   1 C1             0.8385     1.1184     0.0966 C.ar    
   2 C2             1.0907    -0.2223     0.1127 C.ar    
   3 C3             2.3986    -0.6901     0.1047 C.ar    
   4 C4             3.4674     0.1968     0.0807 C.ar    
   5 C5             3.2454     1.5428     0.0647 C.ar    
   6 C6             1.9178     2.0341     0.0717 C.ar    
   7 Cl7            2.7003    -2.3995     0.1254 Cl      
   8 C8             1.6763     3.4019     0.0551 C.2     
   9 S9             2.7523     4.5268     0.0276 S.o     
  10 C10            1.7286     5.9641     0.0185 C.2     
  11 C11            0.4511     5.5572     0.0381 C.2     
  12 C12            0.3287     4.0669     0.0538 C.3     
  13 N13           -0.6224     6.4114     0.0385 N.am    
  14 C14            2.1759     7.3061    -0.0052 C.2     
  15 O15            3.4946     7.5794     0.0808 O.3     
  16 O16            1.3716     8.2139    -0.1030 O.2     
  17 C17            3.8750     8.9565     0.0506 C.3     
  18 C18           -1.8746     5.9202    -0.0463 C.2     
  19 O19           -2.0500     4.7299    -0.2183 O.2     
  20 C20           -3.0342     6.8288     0.0699 C.ar    
  21 C21           -4.3324     6.3231    -0.0175 C.ar    
  22 C22           -5.4111     7.1763     0.0922 C.ar    
  23 C23           -5.2090     8.5306     0.2879 C.ar    
  24 C24           -3.9239     9.0396     0.3756 C.ar    
  25 C25           -2.8361     8.1958     0.2733 C.ar    
  26 Cl26          -3.6806    10.7409     0.6208 Cl      
  27 H27           -0.1794     1.4792     0.0984 H       
  28 H28            0.2694    -0.9234     0.1321 H       
  29 H29            4.4792    -0.1811     0.0752 H       
  30 H30            4.0783     2.2301     0.0468 H       
  31 H31            3.2394     4.5102     1.2812 H       
  32 H32           -0.2332     3.7464    -0.8235 H       
  33 H33           -0.2114     3.7633     0.9505 H       
  34 H34           -0.4802     7.3690     0.0998 H       
  35 H35            3.5435     9.4046    -0.8860 H       
  36 H36            3.4123     9.4797     0.8875 H       
  37 H37            4.9594     9.0356     0.1275 H       
  38 H38           -4.4921     5.2661    -0.1710 H       
  39 H39           -6.4158     6.7859     0.0247 H       
  40 H40           -6.0569     9.1941     0.3724 H       
  41 H41           -1.8343     8.5933     0.3420 H       
@<TRIPOS>BOND
   1    1    2 ar
   2    1    6 ar
   3    1   27 1
   4    2    3 ar
   5    2   28 1
   6    3    4 ar
   7    3    7 1
   8    4    5 ar
   9    4   29 1
  10    5    6 ar
  11    5   30 1
  12    6    8 1
  13    8    9 2
  14    8   12 1
  15    9   10 1
  16    9   31 1
  17   10   11 2
  18   10   14 1
  19   11   12 1
  20   11   13 1
  21   12   32 1
  22   12   33 1
  23   13   18 am
  24   13   34 1
  25   14   15 1
  26   14   16 2
  27   15   17 1
  28   17   35 1
  29   17   36 1
  30   17   37 1
  31   18   19 2
  32   18   20 1
  33   20   21 ar
  34   20   25 ar
  35   21   22 ar
  36   21   38 1
  37   22   23 ar
  38   22   39 1
  39   23   24 ar
  40   23   40 1
  41   24   25 ar
  42   24   26 1
  43   25   41 1

#	End of record

