#	Name: ASD01411280
#	Creating user name:	WinNT
#	Creation time:	15. 06. 2019 19:19

#	Modifying user name:	WinNT
#	Modification time:	15. 06. 2019 19:19

#	Program:	/corina/corina34_cracker 3.40 0067  02.08.2006

@<TRIPOS>MOLECULE
ASD01411280
  74   78    0    0    0
SMALL
NO_CHARGES


@<TRIPOS>ATOM
   1 C1            -0.0170     1.4055     0.0098 C.ar    
   2 C2             0.0021    -0.0041     0.0020 C.ar    
   3 C3            -1.1994    -0.7259     0.0860 C.ar    
   4 C4            -2.3903    -0.0628     0.1037 C.ar    
   5 C5            -2.4175     1.3322     0.0331 C.ar    
   6 C6            -1.2334     2.0674     0.0153 C.ar    
   7 N7             1.2939     1.8356    -0.0004 N.pl3   
   8 C8             2.1171     0.7378    -0.1103 C.2     
   9 C9             1.3605    -0.3885    -0.1069 C.2     
  10 C10            1.7403     3.2240     0.1133 C.3     
  11 C11            1.1041     4.0683    -0.9594 C.2     
  12 N12            1.3933     5.4101    -0.9816 N.am    
  13 O13            0.3583     3.5769    -1.7799 O.2     
  14 C14            0.7401     6.1625    -2.0806 C.3     
  15 C15           -1.4639     7.3321    -1.9696 C.3     
  16 C16           -2.3794     6.8274    -0.8548 C.3     
  17 C17           -3.7001     2.0699    -0.0463 C.2     
  18 O18           -4.7789     1.5123     0.0154 O.2     
  19 N19           -3.5801     3.4353    -0.1949 N.am    
  20 C20           -3.6771     6.2872    -1.4582 C.3     
  21 N21           -4.5789     5.8915    -0.3438 N.am    
  22 S22           -5.0182     4.2735    -0.3392 S.o2    
  23 C23            3.5914     0.7794    -0.2157 C.ar    
  24 C24            4.2072     1.6904    -1.0752 C.ar    
  25 C25            1.8757    -1.8014    -0.2024 C.3     
  26 C26            1.4589    -2.5818     1.0459 C.3     
  27 C27            1.9821    -4.0163     0.9489 C.3     
  28 C28            1.3957    -4.6901    -0.2933 C.3     
  29 C29            1.8125    -3.9098    -1.5416 C.3     
  30 C30            1.2893    -2.4753    -1.4446 C.3     
  31 C31            5.5832     1.7244    -1.1685 C.ar    
  32 C32            6.3525     0.8580    -0.4123 C.ar    
  33 C33            5.7483    -0.0478     0.4414 C.ar    
  34 C34            4.3734    -0.0881     0.5483 C.ar    
  35 O35           -5.5321     3.9852    -1.6322 O.2     
  36 O36           -5.7446     4.0500     0.8615 O.2     
  37 C37           -5.0458     6.8397     0.6707 C.3     
  38 C38           -0.0155     7.3474    -1.4771 C.3     
  39 H39           -1.1800    -1.8045     0.1362 H       
  40 H40           -3.3147    -0.6171     0.1721 H       
  41 H41           -1.2644     3.1470     0.0054 H       
  42 H42            1.4609     3.6137     1.0921 H       
  43 H43            2.8245     3.2641     0.0081 H       
  44 H44            1.9767     5.8318    -0.3314 H       
  45 H45            1.4970     6.5266    -2.7753 H       
  46 H46            0.0409     5.5113    -2.6050 H       
  47 H47           -1.5465     6.6727    -2.8336 H       
  48 H48           -1.7611     8.3415    -2.2543 H       
  49 H49           -1.8765     6.0320    -0.3048 H       
  50 H50           -2.6095     7.6479    -0.1752 H       
  51 H51           -2.7182     3.8798    -0.2141 H       
  52 H52           -4.1536     7.0616    -2.0593 H       
  53 H53           -3.4599     5.4191    -2.0807 H       
  54 H54            3.6078     2.3670    -1.6663 H       
  55 H55            2.9632    -1.7874    -0.2759 H       
  56 H56            1.8767    -2.1017     1.9308 H       
  57 H57            0.3715    -2.5958     1.1193 H       
  58 H58            3.0695    -4.0022     0.8754 H       
  59 H59            1.6851    -4.5722     1.8382 H       
  60 H60            1.7684    -5.7121    -0.3624 H       
  61 H61            0.3082    -4.7041    -0.2198 H       
  62 H62            2.8999    -3.8957    -1.6150 H       
  63 H63            1.3947    -4.3898    -2.4265 H       
  64 H64            0.2019    -2.4893    -1.3711 H       
  65 H65            1.5863    -1.9193    -2.3339 H       
  66 H66            6.0609     2.4286    -1.8335 H       
  67 H67            7.4293     0.8886    -0.4890 H       
  68 H68            6.3544    -0.7216     1.0287 H       
  69 H69            3.9030    -0.7954     1.2153 H       
  70 H70           -5.9787     7.2960     0.3396 H       
  71 H71           -5.2123     6.3134     1.6106 H       
  72 H72           -4.2938     7.6151     0.8167 H       
  73 H73           -0.0006     7.2722    -0.3898 H       
  74 H74            0.4628     8.2777    -1.7837 H       
@<TRIPOS>BOND
   1    1    2 ar
   2    1    7 1
   3    1    6 ar
   4    2    3 ar
   5    2    9 1
   6    3    4 ar
   7    3   39 1
   8    4    5 ar
   9    4   40 1
  10    5    6 ar
  11    5   17 1
  12    6   41 1
  13    7    8 1
  14    7   10 1
  15    8    9 2
  16    8   23 1
  17    9   25 1
  18   10   11 1
  19   10   42 1
  20   10   43 1
  21   11   12 am
  22   11   13 2
  23   12   14 1
  24   12   44 1
  25   14   38 1
  26   14   45 1
  27   14   46 1
  28   15   16 1
  29   15   38 1
  30   15   47 1
  31   15   48 1
  32   16   20 1
  33   16   49 1
  34   16   50 1
  35   17   18 2
  36   17   19 am
  37   19   22 am
  38   19   51 1
  39   20   21 1
  40   20   52 1
  41   20   53 1
  42   21   22 am
  43   21   37 1
  44   22   35 2
  45   22   36 2
  46   23   24 ar
  47   23   34 ar
  48   24   31 ar
  49   24   54 1
  50   25   26 1
  51   25   30 1
  52   25   55 1
  53   26   27 1
  54   26   56 1
  55   26   57 1
  56   27   28 1
  57   27   58 1
  58   27   59 1
  59   28   29 1
  60   28   60 1
  61   28   61 1
  62   29   30 1
  63   29   62 1
  64   29   63 1
  65   30   64 1
  66   30   65 1
  67   31   32 ar
  68   31   66 1
  69   32   33 ar
  70   32   67 1
  71   33   34 ar
  72   33   68 1
  73   34   69 1
  74   37   70 1
  75   37   71 1
  76   37   72 1
  77   38   73 1
  78   38   74 1

#	End of record

