#	Name: ASD03731248
#	Creating user name:	WinNT
#	Creation time:	15. 06. 2019 20:45

#	Modifying user name:	WinNT
#	Modification time:	15. 06. 2019 20:45

#	Program:	/corina/corina34_cracker 3.40 0067  02.08.2006

@<TRIPOS>MOLECULE
ASD03731248
  62   67    0    0    0
SMALL
NO_CHARGES


@<TRIPOS>ATOM
   1 N1            -0.0162     1.3436     0.0094 N.am    
   2 C2            -0.1405     0.0016     0.0223 C.2     
   3 O3             0.8470    -0.7013    -0.0732 O.2     
   4 N4            -1.3594    -0.5612     0.1410 N.am    
   5 C5            -1.4945    -2.0199     0.1551 C.3     
   6 C6            -2.9711    -2.3939     0.2987 C.3     
   7 O7             1.4720    -7.7779     2.0202 O.3     
   8 C8             1.7689    -9.1702     2.2356 C.3     
   9 O9             0.5816    -9.6789     2.8717 O.3     
  10 C10           -0.4361    -8.8761     2.4423 C.ar    
  11 C11            0.1120    -7.7069     1.9197 C.ar    
  12 C12           -1.8082    -9.0516     2.4542 C.ar    
  13 C13           -2.6497    -8.0654     1.9483 C.ar    
  14 C14           -2.0908    -6.8983     1.4365 C.ar    
  15 C15           -0.7229    -6.7228     1.4175 C.ar    
  16 O16           -4.0099    -8.0459     1.8505 O.3     
  17 C17           -3.2392    -6.0286     0.9997 C.3     
  18 C18           -4.4537    -6.6876     1.6675 C.3     
  19 N19           -3.1062    -3.8526     0.3127 N.am    
  20 C20           -3.0679    -4.6011     1.4331 C.2     
  21 C21           -3.3808    -5.9769    -0.4927 C.ar    
  22 C22           -3.5641    -6.9349    -1.4647 C.ar    
  23 C23           -3.6616    -6.5636    -2.7939 C.ar    
  24 C24           -3.5738    -5.2284    -3.1438 C.ar    
  25 C25           -3.3892    -4.2652    -2.1740 C.ar    
  26 C26           -3.2904    -4.6298    -0.8334 C.ar    
  27 O27           -2.9238    -4.2002     2.5687 O.2     
  28 C28            1.2550     1.9284    -0.0001 C.ar    
  29 C29            1.4707     3.1095    -0.6967 C.ar    
  30 C30            2.7304     3.6888    -0.7053 C.ar    
  31 C31            3.7749     3.0881    -0.0184 C.ar    
  32 C32            3.5600     1.9080     0.6778 C.ar    
  33 C33            2.2995     1.3308     0.6919 C.ar    
  34 O34            4.5840     1.3201     1.3505 O.3     
  35 C35            5.8543     1.9724     1.2975 C.3     
  36 O36            2.9418     4.8451    -1.3872 O.3     
  37 C37            4.2640     5.3859    -1.3531 C.3     
  38 H38           -0.8079     1.9039     0.0027 H       
  39 H39           -2.1472    -0.0004     0.2172 H       
  40 H40           -1.1048    -2.4298    -0.7767 H       
  41 H41           -0.9327    -2.4287     0.9949 H       
  42 H42           -3.3607    -1.9840     1.2305 H       
  43 H43           -3.5328    -1.9851    -0.5412 H       
  44 H44            1.9412    -9.6764     1.2857 H       
  45 H45            2.6322    -9.2806     2.8917 H       
  46 H46           -2.2292    -9.9601     2.8590 H       
  47 H47           -0.3018    -5.8155     1.0102 H       
  48 H48           -5.3239    -6.6496     1.0122 H       
  49 H49           -4.6698    -6.2183     2.6273 H       
  50 H50           -3.6322    -7.9769    -1.1892 H       
  51 H51           -3.8063    -7.3146    -3.5565 H       
  52 H52           -3.6498    -4.9386    -4.1814 H       
  53 H53           -3.3211    -3.2247    -2.4551 H       
  54 H54            0.6576     3.5770    -1.2321 H       
  55 H55            4.7561     3.5393    -0.0260 H       
  56 H56            2.1312     0.4142     1.2377 H       
  57 H57            6.1852     2.0397     0.2611 H       
  58 H58            5.7658     2.9747     1.7165 H       
  59 H59            6.5809     1.4002     1.8744 H       
  60 H60            4.5427     5.5994    -0.3212 H       
  61 H61            4.9628     4.6644    -1.7764 H       
  62 H62            4.2951     6.3066    -1.9357 H       
@<TRIPOS>BOND
   1    1    2 am
   2    1   28 1
   3    1   38 1
   4    2    3 2
   5    2    4 am
   6    4    5 1
   7    4   39 1
   8    5    6 1
   9    5   40 1
  10    5   41 1
  11    6   19 1
  12    6   42 1
  13    6   43 1
  14    7    8 1
  15    7   11 1
  16    8    9 1
  17    8   44 1
  18    8   45 1
  19    9   10 1
  20   10   11 ar
  21   10   12 ar
  22   11   15 ar
  23   12   13 ar
  24   12   46 1
  25   13   14 ar
  26   13   16 1
  27   14   15 ar
  28   14   17 1
  29   15   47 1
  30   16   18 1
  31   17   18 1
  32   17   20 1
  33   17   21 1
  34   18   48 1
  35   18   49 1
  36   19   20 am
  37   19   26 1
  38   20   27 2
  39   21   22 ar
  40   21   26 ar
  41   22   23 ar
  42   22   50 1
  43   23   24 ar
  44   23   51 1
  45   24   25 ar
  46   24   52 1
  47   25   26 ar
  48   25   53 1
  49   28   29 ar
  50   28   33 ar
  51   29   30 ar
  52   29   54 1
  53   30   31 ar
  54   30   36 1
  55   31   32 ar
  56   31   55 1
  57   32   33 ar
  58   32   34 1
  59   33   56 1
  60   34   35 1
  61   35   57 1
  62   35   58 1
  63   35   59 1
  64   36   37 1
  65   37   60 1
  66   37   61 1
  67   37   62 1

#	End of record

