#	Name: ASD02190020
#	Creating user name:	WinNT
#	Creation time:	15. 06. 2019 20:18

#	Modifying user name:	WinNT
#	Modification time:	15. 06. 2019 20:18

#	Program:	/corina/corina34_cracker 3.40 0067  02.08.2006

@<TRIPOS>MOLECULE
ASD02190020
  47   49    0    0    0
SMALL
NO_CHARGES


@<TRIPOS>ATOM
   1 C1            -0.0629     1.4705    -0.6433 C.ar    
   2 N2            -0.0379     0.1750    -0.9131 N.ar    
   3 C3            -1.1491    -0.5523    -0.8716 C.ar    
   4 N4            -2.3221    -0.0127    -0.5600 N.ar    
   5 C5            -2.4170     1.2819    -0.2784 C.ar    
   6 C6            -1.2632     2.0695    -0.3088 C.ar    
   7 N7            -3.6425     1.8427     0.0466 N.pl3   
   8 C8            -4.8102     1.0778    -0.0520 C.ar    
   9 C9            -4.8288    -0.0648    -0.8396 C.ar    
  10 C10           -5.9833    -0.8182    -0.9351 C.ar    
  11 C11           -7.1200    -0.4354    -0.2478 C.ar    
  12 C12           -7.1068     0.7027     0.5381 C.ar    
  13 C13           -5.9534     1.4577     0.6437 C.ar    
  14 C14           -8.3768    -1.2600    -0.3555 C.3     
  15 C15           -1.0784    -1.9934    -1.1796 C.2     
  16 C16            0.0443    -2.6655    -1.5102 C.2     
  17 C17           -0.1393    -4.0091    -1.7540 C.2     
  18 C18           -1.3993    -4.4415    -1.6261 C.2     
  19 S19           -2.4429    -3.1032    -1.1652 S.3     
  20 Br20           1.2842    -5.1574    -2.2346 Br      
  21 F21           -5.9401     2.5691     1.4117 F       
  22 C22           -8.3823    -2.3108     0.7246 C.2     
  23 O23           -7.4602    -2.3829     1.5021 O.2     
  24 O24           -9.4115    -3.1668     0.8230 O.3     
  25 C25           -1.8542    -5.8623    -1.8390 C.3     
  26 C26            1.2051     2.2832    -0.6942 C.3     
  27 C27           -1.1171     3.7538     1.5053 C.3     
  28 C28           -1.3277     3.5421     0.0048 C.3     
  29 H29           -3.6906     2.7652     0.3424 H       
  30 H30           -3.9418    -0.3648    -1.3778 H       
  31 H31           -5.9977    -1.7073    -1.5480 H       
  32 H32           -7.9966     0.9992     1.0735 H       
  33 H33           -9.2466    -0.6136    -0.2379 H       
  34 H34           -8.4122    -1.7426    -1.3322 H       
  35 H35            1.0105    -2.1878    -1.5787 H       
  36 H36           -9.3703    -3.8233     1.5318 H       
  37 H37           -1.7933    -6.4083    -0.8976 H       
  38 H38           -2.8847    -5.8644    -2.1943 H       
  39 H39           -1.2137    -6.3418    -2.5793 H       
  40 H40            1.3406     2.6826    -1.6993 H       
  41 H41            1.1382     3.1059     0.0178 H       
  42 H42            2.0537     1.6490    -0.4378 H       
  43 H43           -1.8963     3.2299     2.0590 H       
  44 H44           -0.1413     3.3633     1.7939 H       
  45 H45           -1.1638     4.8189     1.7321 H       
  46 H46           -0.5485     4.0659    -0.5489 H       
  47 H47           -2.3036     3.9326    -0.2838 H       
@<TRIPOS>BOND
   1    1    2 ar
   2    1   26 1
   3    1    6 ar
   4    2    3 ar
   5    3    4 ar
   6    3   15 1
   7    4    5 ar
   8    5    6 ar
   9    5    7 1
  10    6   28 1
  11    7    8 1
  12    7   29 1
  13    8    9 ar
  14    8   13 ar
  15    9   10 ar
  16    9   30 1
  17   10   11 ar
  18   10   31 1
  19   11   12 ar
  20   11   14 1
  21   12   13 ar
  22   12   32 1
  23   13   21 1
  24   14   22 1
  25   14   33 1
  26   14   34 1
  27   15   16 2
  28   15   19 1
  29   16   17 1
  30   16   35 1
  31   17   18 2
  32   17   20 1
  33   18   19 1
  34   18   25 1
  35   22   23 2
  36   22   24 1
  37   24   36 1
  38   25   37 1
  39   25   38 1
  40   25   39 1
  41   26   40 1
  42   26   41 1
  43   26   42 1
  44   27   28 1
  45   27   43 1
  46   27   44 1
  47   27   45 1
  48   28   46 1
  49   28   47 1

#	End of record

