#	Name: ASD01028803
#	Creating user name:	WinNT
#	Creation time:	15. 06. 2019 18:58

#	Modifying user name:	WinNT
#	Modification time:	15. 06. 2019 18:58

#	Program:	/corina/corina34_cracker 3.40 0067  02.08.2006

@<TRIPOS>MOLECULE
ASD01028803
  44   48    0    0    0
SMALL
NO_CHARGES


@<TRIPOS>ATOM
   1 N1            -0.0162     1.3469     0.0094 N.am    
   2 C2             0.0021    -0.0041     0.0020 C.2     
   3 C3             1.2922    -0.7022    -0.0141 C.2     
   4 N4             2.4044    -0.0248    -0.0210 N.2     
   5 C5             2.3977     1.3219    -0.0137 C.ar    
   6 C6             3.6086     2.0317    -0.0214 C.ar    
   7 C7             3.5990     3.3957    -0.0136 C.ar    
   8 C8             2.3994     4.0957     0.0020 C.ar    
   9 C9             1.1973     3.4232     0.0103 C.ar    
  10 C10            1.1824     2.0314     0.0017 C.ar    
  11 O11           -1.0397    -0.6346     0.0090 O.2     
  12 C12            4.9032     4.1507    -0.0215 C.3     
  13 C13            5.5996     5.3042    -3.4109 C.2     
  14 C14            5.4413     6.2791    -4.4141 C.2     
  15 C15            4.6988     7.3865    -4.1502 C.2     
  16 C16            4.0977     7.5503    -2.8842 C.2     
  17 N17            4.2443     6.6402    -1.9469 N.2     
  18 N18            5.0013     5.4917    -2.1874 N.pl3   
  19 N19            6.0688     3.6277    -2.1857 N.2     
  20 N20            6.2357     4.1457    -3.3523 N.2     
  21 C21            5.3247     4.4105    -1.4448 C.2     
  22 C22            3.2899     8.7636    -2.6078 C.ar    
  23 C23            2.6914     8.9363    -1.3612 C.ar    
  24 C24            1.9410    10.0670    -1.1096 C.ar    
  25 C25            1.7820    11.0275    -2.0922 C.ar    
  26 C26            2.3734    10.8611    -3.3315 C.ar    
  27 C27            3.1315     9.7375    -3.5919 C.ar    
  28 C28            1.3306    -2.2087    -0.0220 C.3     
  29 H29           -0.8584     1.8281     0.0161 H       
  30 H30            4.5475     1.4981    -0.0332 H       
  31 H31            2.4093     5.1757     0.0080 H       
  32 H32            0.2686     3.9745     0.0232 H       
  33 H33            4.7765     5.1001     0.4990 H       
  34 H34            5.6683     3.5597     0.4819 H       
  35 H35            5.9043     6.1488    -5.3811 H       
  36 H36            4.5691     8.1424    -4.9106 H       
  37 H37            2.8143     8.1867    -0.5936 H       
  38 H38            1.4767    10.2019    -0.1439 H       
  39 H39            1.1937    11.9106    -1.8911 H       
  40 H40            2.2455    11.6139    -4.0953 H       
  41 H41            3.5968     9.6109    -4.5583 H       
  42 H42            1.3299    -2.5667    -1.0515 H       
  43 H43            2.2346    -2.5517     0.4813 H       
  44 H44            0.4553    -2.5972     0.4984 H       
@<TRIPOS>BOND
   1    1    2 am
   2    1   10 1
   3    1   29 1
   4    2    3 1
   5    2   11 2
   6    3    4 2
   7    3   28 1
   8    4    5 1
   9    5    6 ar
  10    5   10 ar
  11    6    7 ar
  12    6   30 1
  13    7    8 ar
  14    7   12 1
  15    8    9 ar
  16    8   31 1
  17    9   10 ar
  18    9   32 1
  19   12   21 1
  20   12   33 1
  21   12   34 1
  22   13   14 1
  23   13   18 1
  24   13   20 2
  25   14   15 2
  26   14   35 1
  27   15   16 1
  28   15   36 1
  29   16   17 2
  30   16   22 1
  31   17   18 1
  32   18   21 1
  33   19   20 1
  34   19   21 2
  35   22   23 ar
  36   22   27 ar
  37   23   24 ar
  38   23   37 1
  39   24   25 ar
  40   24   38 1
  41   25   26 ar
  42   25   39 1
  43   26   27 ar
  44   26   40 1
  45   27   41 1
  46   28   42 1
  47   28   43 1
  48   28   44 1

#	End of record

