#	Name: ASD01810254
#	Creating user name:	WinNT
#	Creation time:	15. 06. 2019 19:24

#	Modifying user name:	WinNT
#	Modification time:	15. 06. 2019 19:24

#	Program:	/corina/corina34_cracker 3.40 0067  02.08.2006

@<TRIPOS>MOLECULE
ASD01810254
  43   46    0    0    0
SMALL
NO_CHARGES


@<TRIPOS>ATOM
   1 C1            -0.0167     1.3824     0.0096 C.ar    
   2 C2             0.0021    -0.0041     0.0020 C.ar    
   3 C3             1.1956    -0.6929    -0.0126 C.ar    
   4 C4             2.4016     0.0023    -0.0205 C.ar    
   5 C5             2.3831     1.4076    -0.0132 C.ar    
   6 C6             1.1661     2.0941     0.0022 C.ar    
   7 N7             3.6009    -0.6768    -0.0346 N.pl3   
   8 C8             4.7870    -0.0547    -0.0422 C.2     
   9 C9             4.8957     1.3211    -0.0358 C.2     
  10 C10            3.6666     2.1314    -0.0216 C.2     
  11 O11            3.7089     3.3493    -0.0155 O.2     
  12 C12            6.2161     1.9663    -0.0431 C.2     
  13 O13            6.3091     3.3112    -0.0368 O.3     
  14 O14            7.2243     1.2873    -0.0548 O.2     
  15 C15            3.5773    -2.1416    -0.0413 C.3     
  16 C16            3.5562    -2.6372    -1.4643 C.ar    
  17 N17            2.4049    -2.7379    -2.0996 N.ar    
  18 C18            2.3325    -3.1655    -3.3438 C.ar    
  19 C19            3.4845    -3.5300    -4.0363 C.ar    
  20 C20            4.7199    -3.4346    -3.3908 C.ar    
  21 C21            4.7450    -2.9741    -2.0856 C.ar    
  22 C22            3.4010    -4.0126    -5.4380 C.2     
  23 C23            4.4830    -4.4110    -6.2469 C.2     
  24 N24            4.0094    -4.7689    -7.4110 N.2     
  25 N25            2.6180    -4.6145    -7.3917 N.pl3   
  26 C26            2.2617    -4.1564    -6.1747 C.2     
  27 C27            1.7059    -4.9065    -8.5003 C.3     
  28 F28            1.1472     3.4450     0.0087 F       
  29 H29           -0.9604     1.9075     0.0170 H       
  30 H30           -0.9295    -0.5505     0.0080 H       
  31 H31            1.1952    -1.7729    -0.0177 H       
  32 H32            5.6883    -0.6495    -0.0533 H       
  33 H33            7.1989     3.6897    -0.0420 H       
  34 H34            4.4660    -2.5216     0.4627 H       
  35 H35            2.6863    -2.4929     0.4791 H       
  36 H36            1.3710    -3.2343    -3.8308 H       
  37 H37            5.6327    -3.7091    -3.8987 H       
  38 H38            5.6818    -2.8874    -1.5553 H       
  39 H39            5.5230    -4.4193    -5.9557 H       
  40 H40            1.2571    -3.9359    -5.8451 H       
  41 H41            1.3770    -5.9438    -8.4367 H       
  42 H42            0.8403    -4.2467    -8.4422 H       
  43 H43            2.2219    -4.7464    -9.4471 H       
@<TRIPOS>BOND
   1    1    2 ar
   2    1    6 ar
   3    1   29 1
   4    2    3 ar
   5    2   30 1
   6    3    4 ar
   7    3   31 1
   8    4    5 ar
   9    4    7 1
  10    5    6 ar
  11    5   10 1
  12    6   28 1
  13    7    8 1
  14    7   15 1
  15    8    9 2
  16    8   32 1
  17    9   10 1
  18    9   12 1
  19   10   11 2
  20   12   13 1
  21   12   14 2
  22   13   33 1
  23   15   16 1
  24   15   34 1
  25   15   35 1
  26   16   17 ar
  27   16   21 ar
  28   17   18 ar
  29   18   19 ar
  30   18   36 1
  31   19   20 ar
  32   19   22 1
  33   20   21 ar
  34   20   37 1
  35   21   38 1
  36   22   23 1
  37   22   26 2
  38   23   24 2
  39   23   39 1
  40   24   25 1
  41   25   26 1
  42   25   27 1
  43   26   40 1
  44   27   41 1
  45   27   42 1
  46   27   43 1

#	End of record

