#	Name: ASD01884312
#	Creating user name:	WinNT
#	Creation time:	15. 06. 2019 19:48

#	Modifying user name:	WinNT
#	Modification time:	15. 06. 2019 19:48

#	Program:	/corina/corina34_cracker 3.40 0067  02.08.2006

@<TRIPOS>MOLECULE
ASD01884312
  49   51    0    0    0
SMALL
NO_CHARGES


@<TRIPOS>ATOM
   1 C1            -1.7097    -1.5520    -3.5643 C.ar    
   2 C2            -2.7871    -0.6624    -3.5189 C.ar    
   3 C3            -3.4015    -0.3891    -2.3175 C.ar    
   4 C4            -2.9518    -0.9966    -1.1505 C.ar    
   5 C5            -1.8807    -1.8819    -1.1914 C.ar    
   6 C6            -1.2644    -2.1651    -2.3895 C.ar    
   7 O7            -3.5599    -0.7242     0.0316 O.3     
   8 C8            -4.6669     0.0599     0.0127 C.ar    
   9 C9            -5.9221    -0.5155    -0.1513 C.ar    
  10 C10           -4.5447     1.4368     0.1631 C.ar    
  11 C11           -5.6665     2.2349     0.1452 C.ar    
  12 C12           -6.9273     1.6607    -0.0246 C.ar    
  13 C13           -7.0473     0.2779    -0.1709 C.ar    
  14 B14           -8.2084     2.5679    -0.0454 Du      
  15 C15           -1.0485    -1.8476    -4.8490 C.2     
  16 O16           -0.0102    -2.7054    -4.8907 O.3     
  17 C17            0.5919    -2.9489    -6.1893 C.3     
  18 O18           -1.4401    -1.3176    -5.8699 O.2     
  19 O19           -9.5719     2.1521    -0.2081 O.3     
  20 O20           -8.2727     3.9938     0.1003 O.3     
  21 C21           -9.2792     4.4126    -0.8453 C.3     
  22 C22          -10.1626     3.1603    -1.0551 C.3     
  23 C23          -10.1222     2.7185    -2.5194 C.3     
  24 C24          -11.6023     3.4450    -0.6224 C.3     
  25 C25          -10.1106     5.5590    -0.2662 C.3     
  26 C26           -8.6285     4.8372    -2.1634 C.3     
  27 H27           -3.1367    -0.1898    -4.4249 H       
  28 H28           -4.2337     0.2983    -2.2815 H       
  29 H29           -1.5344    -2.3517    -0.2826 H       
  30 H30           -0.4324    -2.8529    -2.4204 H       
  31 H31           -6.0145    -1.5856    -0.2638 H       
  32 H32           -3.5689     1.8807     0.2944 H       
  33 H33           -5.5711     3.3043     0.2627 H       
  34 H34           -8.0217    -0.1692    -0.3024 H       
  35 H35            1.4142    -3.6563    -6.0817 H       
  36 H36           -0.1568    -3.3623    -6.8652 H       
  37 H37            0.9703    -2.0111    -6.5960 H       
  38 H38           -9.0960     2.4799    -2.7987 H       
  39 H39          -10.7488     1.8363    -2.6502 H       
  40 H40          -10.4930     3.5247    -3.1524 H       
  41 H41          -12.0042     4.2664    -1.2155 H       
  42 H42          -12.2109     2.5539    -0.7764 H       
  43 H43          -11.6174     3.7174     0.4329 H       
  44 H44           -9.4633     6.4131    -0.0677 H       
  45 H45          -10.8816     5.8459    -0.9813 H       
  46 H46          -10.5794     5.2346     0.6628 H       
  47 H47           -8.0539     4.0048    -2.5697 H       
  48 H48           -9.4026     5.1257    -2.8744 H       
  49 H49           -7.9653     5.6837    -1.9850 H       
@<TRIPOS>BOND
   1    1    2 ar
   2    1   15 1
   3    1    6 ar
   4    2    3 ar
   5    2   27 1
   6    3    4 ar
   7    3   28 1
   8    4    5 ar
   9    4    7 1
  10    5    6 ar
  11    5   29 1
  12    6   30 1
  13    7    8 1
  14    8    9 ar
  15    8   10 ar
  16    9   13 ar
  17    9   31 1
  18   10   11 ar
  19   10   32 1
  20   11   12 ar
  21   11   33 1
  22   12   13 ar
  23   12   14 1
  24   13   34 1
  25   14   19 1
  26   14   20 1
  27   15   16 1
  28   15   18 2
  29   16   17 1
  30   17   35 1
  31   17   36 1
  32   17   37 1
  33   19   22 1
  34   20   21 1
  35   21   22 1
  36   21   25 1
  37   21   26 1
  38   22   23 1
  39   22   24 1
  40   23   38 1
  41   23   39 1
  42   23   40 1
  43   24   41 1
  44   24   42 1
  45   24   43 1
  46   25   44 1
  47   25   45 1
  48   25   46 1
  49   26   47 1
  50   26   48 1
  51   26   49 1

#	End of record

