#	Name: ASD03090668
#	Creating user name:	WinNT
#	Creation time:	15. 06. 2019 20:29

#	Modifying user name:	WinNT
#	Modification time:	15. 06. 2019 20:29

#	Program:	/corina/corina34_cracker 3.40 0067  02.08.2006

@<TRIPOS>MOLECULE
ASD03090668
  34   35    0    0    0
SMALL
NO_CHARGES


@<TRIPOS>ATOM
   1 N1            -0.0162     1.3436     0.0094 N.am    
   2 C2            -0.0612     0.1290     0.5920 C.2     
   3 O3             0.9569    -0.3759     1.0244 O.2     
   4 N4            -1.2347    -0.5257     0.6953 N.am    
   5 O5            -0.2491    -2.4577     1.8164 O.3     
   6 N6            -0.6045    -3.5212     2.2684 N.2     
   7 C7            -1.8866    -3.7056     2.1224 C.2     
   8 C8            -2.3853    -2.5587     1.4727 C.2     
   9 C9            -1.2810    -1.7756     1.2948 C.2     
  10 C10           -2.6799    -4.9091     2.5620 C.3     
  11 C11            1.1764     3.4545    -0.1185 C.ar    
  12 C12            1.1879     2.0647    -0.0180 C.ar    
  13 C13            2.4075     1.4020     0.0553 C.ar    
  14 C14            3.5714     2.1542     0.0253 C.ar    
  15 C15            3.4848     3.5345    -0.0761 C.ar    
  16 N16            2.3085     4.1374    -0.1442 N.ar    
  17 O17            4.6210     4.2769    -0.1055 O.3     
  18 C18            4.4677     5.6937    -0.2110 C.3     
  19 O19           -0.0080     4.1132    -0.1965 O.3     
  20 C20            0.0472     5.5375    -0.2978 C.3     
  21 H21           -0.8149     1.7176    -0.3944 H       
  22 H22           -2.0469    -0.1229     0.3504 H       
  23 H23           -3.4041    -2.3482     1.1826 H       
  24 H24           -3.0392    -4.7555     3.5795 H       
  25 H25           -3.5297    -5.0480     1.8937 H       
  26 H26           -2.0446    -5.7943     2.5307 H       
  27 H27            2.4474     0.3256     0.1342 H       
  28 H28            4.5354     1.6704     0.0807 H       
  29 H29            5.4502     6.1655    -0.2242 H       
  30 H30            3.9368     5.9342    -1.1321 H       
  31 H31            3.8991     6.0622     0.6428 H       
  32 H32            0.5517     5.9448     0.5784 H       
  33 H33            0.5973     5.8168    -1.1964 H       
  34 H34           -0.9653     5.9374    -0.3526 H       
@<TRIPOS>BOND
   1    1    2 am
   2    1   12 1
   3    1   21 1
   4    2    3 2
   5    2    4 am
   6    4    9 1
   7    4   22 1
   8    5    6 1
   9    5    9 1
  10    6    7 2
  11    7    8 1
  12    7   10 1
  13    8    9 2
  14    8   23 1
  15   10   24 1
  16   10   25 1
  17   10   26 1
  18   11   12 ar
  19   11   16 ar
  20   11   19 1
  21   12   13 ar
  22   13   14 ar
  23   13   27 1
  24   14   15 ar
  25   14   28 1
  26   15   16 ar
  27   15   17 1
  28   17   18 1
  29   18   29 1
  30   18   30 1
  31   18   31 1
  32   19   20 1
  33   20   32 1
  34   20   33 1
  35   20   34 1

#	End of record

