#	Name: ASD01917829
#	Creating user name:	WinNT
#	Creation time:	15. 06. 2019 20:10

#	Modifying user name:	WinNT
#	Modification time:	15. 06. 2019 20:10

#	Program:	/corina/corina34_cracker 3.40 0067  02.08.2006

@<TRIPOS>MOLECULE
ASD01917829
  50   53    0    0    0
SMALL
NO_CHARGES


@<TRIPOS>ATOM
   1 C1             0.1819     1.5062    -0.6882 C.2     
   2 C2             0.2824     0.1910    -0.9572 C.2     
   3 C3            -0.9083    -0.7546    -0.9216 C.3     
   4 C4            -2.0334    -0.1136    -0.1057 C.3     
   5 N5            -2.2092     1.2804    -0.5402 N.am    
   6 C6            -1.0963     2.2177    -0.3081 C.3     
   7 C7            -3.3506     1.6866    -1.1306 C.2     
   8 O8            -3.5100     2.8582    -1.4006 O.2     
   9 S9             1.7731     2.2366    -0.8464 S.3     
  10 C10            2.4384     0.7161    -1.2551 C.2     
  11 N11            1.5191    -0.1840    -1.2546 N.2     
  12 C12            3.8906     0.4662    -1.5707 C.3     
  13 O13            4.1087     0.6326    -2.9732 O.3     
  14 C14            5.3752     0.4416    -3.4275 C.ar    
  15 C15            5.6583     0.5868    -4.7778 C.ar    
  16 C16            6.9465     0.3922    -5.2371 C.ar    
  17 C17            7.9533     0.0528    -4.3523 C.ar    
  18 C18            7.6737    -0.0929    -3.0061 C.ar    
  19 C19            6.3884     0.1067    -2.5409 C.ar    
  20 C20           -4.4288     0.6851    -1.4554 C.3     
  21 C21           -5.0856     0.2047    -0.1598 C.3     
  22 C22           -6.0017    -0.8988    -2.9854 C.ar    
  23 C23           -6.1447     0.4773    -3.0878 C.ar    
  24 O24           -5.4134     1.2988    -2.2895 O.3     
  25 C25           -6.7459    -1.7318    -3.7983 C.ar    
  26 C26           -7.6323    -1.1950    -4.7136 C.ar    
  27 C27           -7.7770     0.1761    -4.8173 C.ar    
  28 C28           -7.0351     1.0134    -4.0067 C.ar    
  29 H29           -1.2558    -0.9413    -1.9377 H       
  30 H30           -0.6125    -1.6957    -0.4579 H       
  31 H31           -2.9598    -0.6650    -0.2664 H       
  32 H32           -1.7740    -0.1354     0.9528 H       
  33 H33           -1.0650     2.5022     0.7436 H       
  34 H34           -1.2236     3.1046    -0.9289 H       
  35 H35            4.5092     1.1750    -1.0202 H       
  36 H36            4.1560    -0.5501    -1.2798 H       
  37 H37            4.8722     0.8515    -5.4694 H       
  38 H38            7.1673     0.5047    -6.2883 H       
  39 H39            8.9598    -0.0989    -4.7134 H       
  40 H40            8.4617    -0.3587    -2.3170 H       
  41 H41            6.1704    -0.0072    -1.4892 H       
  42 H42           -3.9896    -0.1653    -1.9771 H       
  43 H43           -5.9165    -0.4594    -0.3981 H       
  44 H44           -4.3524    -0.3324     0.4419 H       
  45 H45           -5.4559     1.0635     0.4000 H       
  46 H46           -5.3059    -1.3185    -2.2739 H       
  47 H47           -6.6349    -2.8031    -3.7190 H       
  48 H48           -8.2129    -1.8479    -5.3485 H       
  49 H49           -8.4695     0.5930    -5.5335 H       
  50 H50           -7.1485     2.0843    -4.0880 H       
@<TRIPOS>BOND
   1    1    2 2
   2    1    9 1
   3    1    6 1
   4    2    3 1
   5    2   11 1
   6    3    4 1
   7    3   29 1
   8    3   30 1
   9    4    5 1
  10    4   31 1
  11    4   32 1
  12    5    6 1
  13    5    7 am
  14    6   33 1
  15    6   34 1
  16    7    8 2
  17    7   20 1
  18    9   10 1
  19   10   11 2
  20   10   12 1
  21   12   13 1
  22   12   35 1
  23   12   36 1
  24   13   14 1
  25   14   15 ar
  26   14   19 ar
  27   15   16 ar
  28   15   37 1
  29   16   17 ar
  30   16   38 1
  31   17   18 ar
  32   17   39 1
  33   18   19 ar
  34   18   40 1
  35   19   41 1
  36   20   21 1
  37   20   24 1
  38   20   42 1
  39   21   43 1
  40   21   44 1
  41   21   45 1
  42   22   23 ar
  43   22   25 ar
  44   22   46 1
  45   23   24 1
  46   23   28 ar
  47   25   26 ar
  48   25   47 1
  49   26   27 ar
  50   26   48 1
  51   27   28 ar
  52   27   49 1
  53   28   50 1

#	End of record

