#	Name: ASD01884980
#	Creating user name:	WinNT
#	Creation time:	15. 06. 2019 19:49

#	Modifying user name:	WinNT
#	Modification time:	15. 06. 2019 19:49

#	Program:	/corina/corina34_cracker 3.40 0067  02.08.2006

@<TRIPOS>MOLECULE
ASD01884980
  50   53    0    0    0
SMALL
NO_CHARGES


@<TRIPOS>ATOM
   1 C1             0.0271     1.4059     0.1657 C.ar    
   2 C2             0.0802     0.0276     0.1646 C.ar    
   3 C3            -1.0939    -0.7139     0.0281 C.ar    
   4 C4            -2.3176    -0.0582    -0.1069 C.ar    
   5 C5            -2.3640     1.3200    -0.1050 C.ar    
   6 C6            -1.1951     2.0555     0.0367 C.ar    
   7 C7            -1.0408    -2.1942     0.0260 C.2     
   8 C8            -1.6378    -2.9141     1.0428 C.2     
   9 C9            -0.3821    -2.8844    -1.0227 C.2     
  10 C10           -0.3342    -4.2284    -1.0250 C.2     
  11 N11           -0.9176    -4.9515    -0.0209 N.pl3   
  12 C12           -1.5717    -4.3184     1.0141 C.2     
  13 C13           -2.3488    -2.2048     2.1663 C.3     
  14 C14           -1.0260    -6.2860     0.2335 C.2     
  15 N15           -1.6988    -6.4191     1.3519 N.2     
  16 N16           -2.0246    -5.2650     1.8179 N.2     
  17 O17           -0.5299    -7.2922    -0.5301 O.3     
  18 C18           -0.7602    -8.6268    -0.0741 C.3     
  19 O19           -1.2446     3.4133     0.0381 O.3     
  20 C20           -0.1320    -9.6171    -1.0568 C.3     
  21 C21           -1.0491     4.0600    -1.1410 C.ar    
  22 C22           -1.1514     5.4418    -1.2109 C.ar    
  23 N23           -0.9626     6.0733    -2.3527 N.ar    
  24 C24           -0.6713     5.4266    -3.4642 C.ar    
  25 C25           -0.5521     4.0492    -3.4735 C.ar    
  26 C26           -0.7378     3.3462    -2.2944 C.ar    
  27 C27           -1.4823     6.2289     0.0308 C.3     
  28 C28           -0.4662     6.1992    -4.7417 C.3     
  29 Cl29           1.4868     2.3300     0.3354 Cl      
  30 H30            1.0293    -0.4770     0.2689 H       
  31 H31           -3.2280    -0.6295    -0.2131 H       
  32 H32           -3.3114     1.8279    -0.2099 H       
  33 H33            0.0830    -2.3285    -1.8233 H       
  34 H34            0.1706    -4.7430    -1.8292 H       
  35 H35           -3.3967    -2.0637     1.9015 H       
  36 H36           -2.2810    -2.8036     3.0746 H       
  37 H37           -1.8830    -1.2340     2.3356 H       
  38 H38           -0.3106    -8.7571     0.9102 H       
  39 H39           -1.8330    -8.8090    -0.0106 H       
  40 H40           -0.5816    -9.4868    -2.0412 H       
  41 H41            0.9408    -9.4349    -1.1204 H       
  42 H42           -0.3077   -10.6350    -0.7090 H       
  43 H43           -0.3137     3.5277    -4.3887 H       
  44 H44           -0.6504     2.2700    -2.2723 H       
  45 H45           -0.5603     6.5037     0.5433 H       
  46 H46           -2.0271     7.1316    -0.2456 H       
  47 H47           -2.0987     5.6209     0.6930 H       
  48 H48            0.5850     6.4710    -4.8370 H       
  49 H49           -0.7603     5.5821    -5.5907 H       
  50 H50           -1.0749     7.1031    -4.7214 H       
@<TRIPOS>BOND
   1    1    2 ar
   2    1   29 1
   3    1    6 ar
   4    2    3 ar
   5    2   30 1
   6    3    4 ar
   7    3    7 1
   8    4    5 ar
   9    4   31 1
  10    5    6 ar
  11    5   32 1
  12    6   19 1
  13    7    8 2
  14    7    9 1
  15    8   13 1
  16    8   12 1
  17    9   10 2
  18    9   33 1
  19   10   11 1
  20   10   34 1
  21   11   12 1
  22   11   14 1
  23   12   16 2
  24   13   35 1
  25   13   36 1
  26   13   37 1
  27   14   15 2
  28   14   17 1
  29   15   16 1
  30   17   18 1
  31   18   20 1
  32   18   38 1
  33   18   39 1
  34   19   21 1
  35   20   40 1
  36   20   41 1
  37   20   42 1
  38   21   22 ar
  39   21   26 ar
  40   22   23 ar
  41   22   27 1
  42   23   24 ar
  43   24   25 ar
  44   24   28 1
  45   25   26 ar
  46   25   43 1
  47   26   44 1
  48   27   45 1
  49   27   46 1
  50   27   47 1
  51   28   48 1
  52   28   49 1
  53   28   50 1

#	End of record

