#	Name: ASD01230371
#	Creating user name:	WinNT
#	Creation time:	15. 06. 2019 19:14

#	Modifying user name:	WinNT
#	Modification time:	15. 06. 2019 19:14

#	Program:	/corina/corina34_cracker 3.40 0067  02.08.2006

@<TRIPOS>MOLECULE
ASD01230371
  59   60    0    0    0
SMALL
NO_CHARGES


@<TRIPOS>ATOM
   1 S1            -0.1439     1.4096     0.0560 S.o2    
   2 S2            -3.4069    15.3476    -8.2297 S.o2    
   3 O3            -1.0366     2.0033     0.9886 O.2     
   4 O4             0.0199    -0.0006    -0.0056 O.2     
   5 O5            -4.0277    16.6254    -8.1962 O.2     
   6 O6            -2.0083    15.2068    -8.0215 O.2     
   7 N7            -0.7703     1.8130    -1.4228 N.am    
   8 N8            -4.0926    14.5271    -6.9652 N.am    
   9 C9            -1.2875     3.3658    -3.2402 C.3     
  10 C10           -1.0730     3.2124    -1.7331 C.3     
  11 C11            1.4700     2.2363     0.1048 C.3     
  12 C12           -1.7188     4.7772    -3.5452 C.ar    
  13 C13            0.0197     3.0619    -3.9749 C.3     
  14 C14           -2.9385     5.0085    -4.1552 C.ar    
  15 C15           -0.8959     5.8370    -3.2089 C.ar    
  16 C16            2.1604     1.9293     1.4352 C.3     
  17 C17            2.3378     1.7295    -1.0489 C.3     
  18 C18           -2.5110     7.3701    -4.1054 C.ar    
  19 C19           -3.3384     6.2991    -4.4368 C.ar    
  20 C20           -1.2859     7.1316    -3.4858 C.ar    
  21 C21           -2.9356     8.7599    -4.4056 C.ar    
  22 C22           -3.7275    11.3527    -4.9666 C.ar    
  23 C23           -4.1587    12.7641    -5.2715 C.3     
  24 C24           -2.1082     9.8308    -4.0742 C.ar    
  25 C25           -4.1607     8.9983    -5.0251 C.ar    
  26 C26           -3.6734    13.1551    -6.6688 C.3     
  27 C27           -2.5079    11.1214    -4.3562 C.ar    
  28 C28           -4.5505    10.2929    -5.3025 C.ar    
  29 C29           -3.9272    14.4256    -9.7028 C.3     
  30 H30           -2.0597     2.6707    -3.5699 H       
  31 H31           -1.9774     3.5143    -1.2048 H       
  32 H32           -0.2410     3.8425    -1.4185 H       
  33 H33            1.3298     3.3130     0.0081 H       
  34 H34           -0.9369     1.1227    -2.0837 H       
  35 H35           -0.1331     3.1712    -5.0486 H       
  36 H36            0.7918     3.7570    -3.6452 H       
  37 H37            0.3316     2.0410    -3.7544 H       
  38 H38           -3.5788     4.1776    -4.4119 H       
  39 H39            0.0533     5.6511    -2.7284 H       
  40 H40            2.3006     0.8527     1.5319 H       
  41 H41            3.1301     2.4261     1.4645 H       
  42 H42            1.5422     2.2905     2.2571 H       
  43 H43            1.8896     2.0248    -1.9976 H       
  44 H44            3.3360     2.1599    -0.9691 H       
  45 H45            2.4060     0.6426    -1.0020 H       
  46 H46           -4.2908     6.4785    -4.9134 H       
  47 H47           -0.6425     7.9584    -3.2232 H       
  48 H48           -5.2462    12.8279    -5.2335 H       
  49 H49           -3.7290    13.4425    -4.5345 H       
  50 H50           -1.1559     9.6514    -3.5973 H       
  51 H51           -4.8039     8.1715    -5.2882 H       
  52 H52           -4.1031    12.4766    -7.4057 H       
  53 H53           -2.5859    13.0912    -6.7067 H       
  54 H54           -1.8690    11.9525    -4.0963 H       
  55 H55           -5.5016    10.4791    -5.7790 H       
  56 H56           -4.7719    14.9551    -6.4207 H       
  57 H57           -3.5160    14.9012   -10.5931 H       
  58 H58           -3.5627    13.4004    -9.6373 H       
  59 H59           -5.0155    14.4210    -9.7630 H       
@<TRIPOS>BOND
   1    1    3 2
   2    1    4 2
   3    1    7 am
   4    1   11 1
   5    2    5 2
   6    2    6 2
   7    2    8 am
   8    2   29 1
   9    7   10 1
  10    7   34 1
  11    8   26 1
  12    8   56 1
  13    9   10 1
  14    9   12 1
  15    9   13 1
  16    9   30 1
  17   10   31 1
  18   10   32 1
  19   11   16 1
  20   11   17 1
  21   11   33 1
  22   12   14 ar
  23   12   15 ar
  24   13   35 1
  25   13   36 1
  26   13   37 1
  27   14   19 ar
  28   14   38 1
  29   15   20 ar
  30   15   39 1
  31   16   40 1
  32   16   41 1
  33   16   42 1
  34   17   43 1
  35   17   44 1
  36   17   45 1
  37   18   19 ar
  38   18   20 ar
  39   18   21 1
  40   19   46 1
  41   20   47 1
  42   21   24 ar
  43   21   25 ar
  44   22   23 1
  45   22   27 ar
  46   22   28 ar
  47   23   26 1
  48   23   48 1
  49   23   49 1
  50   24   27 ar
  51   24   50 1
  52   25   28 ar
  53   25   51 1
  54   26   52 1
  55   26   53 1
  56   27   54 1
  57   28   55 1
  58   29   57 1
  59   29   58 1
  60   29   59 1

#	End of record

