#	Name: ASD03540590
#	Creating user name:	WinNT
#	Creation time:	15. 06. 2019 20:43

#	Modifying user name:	WinNT
#	Modification time:	15. 06. 2019 20:43

#	Program:	/corina/corina34_cracker 3.40 0067  02.08.2006

@<TRIPOS>MOLECULE
ASD03540590
  58   62    0    0    0
SMALL
NO_CHARGES


@<TRIPOS>ATOM
   1 C1            -3.2606    -0.8258     0.7597 C.2     
   2 C2            -2.6795    -2.2043     0.5775 C.3     
   3 O3            -2.5292     0.1198     0.9352 O.2     
   4 O4            -4.5904    -0.6476     0.7215 O.3     
   5 C5            -1.1764    -2.1302     0.6559 C.ar    
   6 C6            -0.5399    -2.2748     1.8745 C.ar    
   7 C7             0.8389    -2.2068     1.9464 C.ar    
   8 C8             1.5812    -1.9947     0.7997 C.ar    
   9 C9             0.9447    -1.8510    -0.4190 C.ar    
  10 C10           -0.4338    -1.9233    -0.4915 C.ar    
  11 C11            3.0843    -1.9196     0.8782 C.3     
  12 N12            4.4954    -4.9445    -0.7774 N.pl3   
  13 C13            3.9662    -3.7038    -0.5676 C.2     
  14 N14            3.6500    -3.2595     0.7023 N.am    
  15 C15            3.8553    -4.0416     1.7824 C.2     
  16 C16            4.4260    -5.3877     1.5879 C.ar    
  17 C17            4.6580    -6.2342     2.6658 C.ar    
  18 C18            5.1987    -7.4989     2.4414 C.ar    
  19 C19            5.5041    -7.9088     1.1381 C.ar    
  20 C20            5.2741    -7.0701     0.0711 C.ar    
  21 C21            4.7360    -5.8068     0.2816 C.ar    
  22 N22            4.2813    -3.9320    -2.6604 N.2     
  23 N23            3.8580    -3.1331    -1.7470 N.2     
  24 C24            4.6870    -5.0503    -2.1257 C.2     
  25 O25            3.5750    -3.6435     2.8969 O.2     
  26 C26            5.4500    -8.4067     3.5787 C.2     
  27 N27            5.5239    -9.7370     3.3755 N.am    
  28 O28            5.5902    -7.9540     4.6983 O.2     
  29 C29            5.2388   -10.2925     2.0503 C.3     
  30 C30            6.4246   -12.7502     5.2754 C.ar    
  31 C31            6.0813   -11.9456     4.2089 C.ar    
  32 C32            5.8719   -10.5846     4.4268 C.ar    
  33 C33            6.0198   -10.0929     5.7230 C.ar    
  34 C34            6.3654   -10.9642     6.7351 C.ar    
  35 N35            6.5551   -12.2467     6.4883 N.ar    
  36 C36           -5.0795     0.7073     0.9045 C.3     
  37 H37           -3.0523    -2.8623     1.3624 H       
  38 H38           -2.9737    -2.5968    -0.3959 H       
  39 H39           -1.1198    -2.4405     2.7703 H       
  40 H40            1.3362    -2.3191     2.8985 H       
  41 H41            1.5247    -1.6850    -1.3148 H       
  42 H42           -0.9309    -1.8147    -1.4442 H       
  43 H43            3.4568    -1.2619     0.0929 H       
  44 H44            3.3781    -1.5261     1.8514 H       
  45 H45            4.4214    -5.9140     3.6697 H       
  46 H46            5.9232    -8.8896     0.9686 H       
  47 H47            5.5127    -7.3944    -0.9310 H       
  48 H48            5.0924    -5.9025    -2.6510 H       
  49 H49            6.1727   -10.4304     1.5055 H       
  50 H50            4.7366   -11.2538     2.1597 H       
  51 H51            4.5948    -9.6068     1.4997 H       
  52 H52            6.5844   -13.8065     5.1167 H       
  53 H53            5.9765   -12.3641     3.2187 H       
  54 H54            5.8664    -9.0445     5.9318 H       
  55 H55            6.4822   -10.5921     7.7422 H       
  56 H56           -6.1682     0.7108     0.8515 H       
  57 H57           -4.7620     1.0797     1.8785 H       
  58 H58           -4.6755     1.3484     0.1211 H       
@<TRIPOS>BOND
   1    1    2 1
   2    1    3 2
   3    1    4 1
   4    2    5 1
   5    2   37 1
   6    2   38 1
   7    4   36 1
   8    5    6 ar
   9    5   10 ar
  10    6    7 ar
  11    6   39 1
  12    7    8 ar
  13    7   40 1
  14    8    9 ar
  15    8   11 1
  16    9   10 ar
  17    9   41 1
  18   10   42 1
  19   11   14 1
  20   11   43 1
  21   11   44 1
  22   12   13 1
  23   12   21 1
  24   12   24 1
  25   13   14 1
  26   13   23 2
  27   14   15 am
  28   15   16 1
  29   15   25 2
  30   16   17 ar
  31   16   21 ar
  32   17   18 ar
  33   17   45 1
  34   18   19 ar
  35   18   26 1
  36   19   20 ar
  37   19   46 1
  38   20   21 ar
  39   20   47 1
  40   22   23 1
  41   22   24 2
  42   24   48 1
  43   26   27 am
  44   26   28 2
  45   27   29 1
  46   27   32 1
  47   29   49 1
  48   29   50 1
  49   29   51 1
  50   30   31 ar
  51   30   35 ar
  52   30   52 1
  53   31   32 ar
  54   31   53 1
  55   32   33 ar
  56   33   34 ar
  57   33   54 1
  58   34   35 ar
  59   34   55 1
  60   36   56 1
  61   36   57 1
  62   36   58 1

#	End of record

