#	Name: ASD01140103
#	Creating user name:	WinNT
#	Creation time:	15. 06. 2019 18:59

#	Modifying user name:	WinNT
#	Modification time:	15. 06. 2019 18:59

#	Program:	/corina/corina34_cracker 3.40 0067  02.08.2006

@<TRIPOS>MOLECULE
ASD01140103
  38   39    0    0    0
SMALL
NO_CHARGES


@<TRIPOS>ATOM
   1 C1             0.0667     1.7167    -0.5371 C.3     
   2 C2            -0.1153     0.2806    -0.0010 C.3     
   3 C3             1.2157    -0.4049    -0.3814 C.3     
   4 C4             2.0117     0.6718    -1.0903 C.2     
   5 O5             1.5044     1.8673    -0.7381 O.3     
   6 O6             2.9406     0.4888    -1.8410 O.2     
   7 N7            -0.2961     0.2896     1.4528 N.pl3   
   8 C8            -1.5690     0.4745     1.9971 C.ar    
   9 C9            -1.7423     0.4833     3.3754 C.ar    
  10 C10           -3.0022     0.6669     3.9102 C.ar    
  11 C11           -4.0907     0.8419     3.0754 C.ar    
  12 C12           -3.9218     0.8336     1.7029 C.ar    
  13 C13           -2.6638     0.6558     1.1615 C.ar    
  14 C14            1.9416    -0.8662     0.8560 C.2     
  15 C15            1.3087    -1.8894     1.7636 C.3     
  16 C16            3.1229    -0.3778     1.1428 C.2     
  17 C17            0.9624    -1.5667    -1.3073 C.2     
  18 C18            1.4361    -2.7525    -1.0150 C.2     
  19 C19            0.1643    -1.3642    -2.5694 C.3     
  20 H20           -0.4624     1.8377    -1.4824 H       
  21 H21           -0.2914     2.4418     0.1937 H       
  22 H22           -0.9556    -0.2103    -0.4918 H       
  23 H23            0.4682     0.1671     2.0374 H       
  24 H24           -0.8926     0.3464     4.0279 H       
  25 H25           -3.1376     0.6735     4.9817 H       
  26 H26           -5.0750     0.9849     3.4963 H       
  27 H27           -4.7740     0.9705     1.0538 H       
  28 H28           -2.5325     0.6498     0.0895 H       
  29 H29            1.6712    -2.8829     1.4996 H       
  30 H30            1.5719    -1.6696     2.7982 H       
  31 H31            0.2252    -1.8557     1.6492 H       
  32 H32            3.6794    -0.7682     1.9820 H       
  33 H33            3.5402     0.4152     0.5400 H       
  34 H34            2.0967    -2.8768    -0.1696 H       
  35 H35            1.1661    -3.6059    -1.6194 H       
  36 H36            0.8359    -1.0963    -3.3850 H       
  37 H37           -0.3608    -2.2862    -2.8191 H       
  38 H38           -0.5597    -0.5637    -2.4170 H       
@<TRIPOS>BOND
   1    1    2 1
   2    1    5 1
   3    1   20 1
   4    1   21 1
   5    2    3 1
   6    2    7 1
   7    2   22 1
   8    3    4 1
   9    3   14 1
  10    3   17 1
  11    4    5 1
  12    4    6 2
  13    7    8 1
  14    7   23 1
  15    8    9 ar
  16    8   13 ar
  17    9   10 ar
  18    9   24 1
  19   10   11 ar
  20   10   25 1
  21   11   12 ar
  22   11   26 1
  23   12   13 ar
  24   12   27 1
  25   13   28 1
  26   14   15 1
  27   14   16 2
  28   15   29 1
  29   15   30 1
  30   15   31 1
  31   16   32 1
  32   16   33 1
  33   17   18 2
  34   17   19 1
  35   18   34 1
  36   18   35 1
  37   19   36 1
  38   19   37 1
  39   19   38 1

#	End of record

