#	Name: ASD01028641
#	Creating user name:	WinNT
#	Creation time:	15. 06. 2019 18:57

#	Modifying user name:	WinNT
#	Modification time:	15. 06. 2019 18:57

#	Program:	/corina/corina34_cracker 3.40 0067  02.08.2006

@<TRIPOS>MOLECULE
ASD01028641
  46   47    0    0    0
SMALL
NO_CHARGES


@<TRIPOS>ATOM
   1 N1            -0.0169     1.3918     0.0097 N.2     
   2 N2             0.0021    -0.0041     0.0020 N.pl3   
   3 C3             1.1109     2.0746     0.0026 C.2     
   4 C4             2.3586     1.4084    -0.0129 C.2     
   5 C5             2.4064     0.0510    -0.0206 C.2     
   6 C6             1.2023    -0.6792    -0.0131 C.2     
   7 N7             0.9146    -1.9694    -0.0179 N.2     
   8 N8            -0.3631    -2.1241    -0.0070 N.2     
   9 C9            -0.9621    -0.9600     0.0061 C.2     
  10 N10           -2.9197    -0.6570     1.4079 N.am    
  11 C11           -4.2260    -0.4513     1.6679 C.2     
  12 C12            1.0723     3.5060     0.0102 C.1     
  13 C13           -2.4504    -0.7241     0.0217 C.3     
  14 O14           -5.0146    -0.3214     0.7526 O.2     
  15 O15           -4.6573    -0.3896     2.9419 O.3     
  16 C16           -6.0771    -0.1656     3.1470 C.3     
  17 C17           -6.8715    -1.3011     2.4986 C.3     
  18 C18           -6.3757    -0.1261     4.6471 C.3     
  19 C19           -6.4803     1.1666     2.5116 C.3     
  20 C20            1.0407     4.6796     0.0164 C.1     
  21 C21            1.0021     6.1110     0.0240 C.2     
  22 O22            2.0367     6.7462     0.0175 O.2     
  23 C23           -0.3228     6.8290     0.0400 C.3     
  24 C24           -0.7577     7.0647     1.4878 C.3     
  25 C25           -0.1827     8.1740    -0.6759 C.3     
  26 H26            3.2749     1.9800    -0.0189 H       
  27 H27            3.3565    -0.4623    -0.0321 H       
  28 H28           -2.2902    -0.7607     2.1386 H       
  29 H29           -2.6747     0.2152    -0.4837 H       
  30 H30           -2.9535    -1.5428    -0.4929 H       
  31 H31           -6.5843    -2.2501     2.9513 H       
  32 H32           -7.9374    -1.1329     2.6526 H       
  33 H33           -6.6588    -1.3292     1.4299 H       
  34 H34           -5.8097     0.6828     5.1091 H       
  35 H35           -7.4416     0.0420     4.8011 H       
  36 H36           -6.0885    -1.0752     5.0998 H       
  37 H37           -6.2676     1.1385     1.4429 H       
  38 H38           -7.5462     1.3347     2.6656 H       
  39 H39           -5.9143     1.9755     2.9736 H       
  40 H40           -1.0711     6.2223    -0.4700 H       
  41 H41           -1.7159     7.5841     1.4994 H       
  42 H42           -0.8575     6.1066     1.9978 H       
  43 H43           -0.0094     7.6715     1.9977 H       
  44 H44            0.1271     8.0060    -1.7073 H       
  45 H45           -1.1410     8.6933    -0.6643 H       
  46 H46            0.5656     8.7807    -0.1659 H       
@<TRIPOS>BOND
   1    1    2 1
   2    1    3 2
   3    2    6 1
   4    2    9 1
   5    3    4 1
   6    3   12 1
   7    4    5 2
   8    4   26 1
   9    5    6 1
  10    5   27 1
  11    6    7 2
  12    7    8 1
  13    8    9 2
  14    9   13 1
  15   10   11 am
  16   10   13 1
  17   10   28 1
  18   11   14 2
  19   11   15 1
  20   12   20 3
  21   13   29 1
  22   13   30 1
  23   15   16 1
  24   16   17 1
  25   16   18 1
  26   16   19 1
  27   17   31 1
  28   17   32 1
  29   17   33 1
  30   18   34 1
  31   18   35 1
  32   18   36 1
  33   19   37 1
  34   19   38 1
  35   19   39 1
  36   20   21 1
  37   21   22 2
  38   21   23 1
  39   23   24 1
  40   23   25 1
  41   23   40 1
  42   24   41 1
  43   24   42 1
  44   24   43 1
  45   25   44 1
  46   25   45 1
  47   25   46 1

#	End of record

