#	Name: ASD08070193
#	Creating user name:	WinNT
#	Creation time:	15. 06. 2019 21:14

#	Modifying user name:	WinNT
#	Modification time:	15. 06. 2019 21:14

#	Program:	/corina/corina34_cracker 3.40 0067  02.08.2006

@<TRIPOS>MOLECULE
ASD08070193
  34   36    0    0    0
SMALL
NO_CHARGES


@<TRIPOS>ATOM
   1 C1            -0.0167     1.3808     0.0096 C.ar    
   2 C2             0.0021    -0.0041     0.0020 C.ar    
   3 C3             1.2035    -0.6865    -0.0126 C.ar    
   4 C4             2.4012     0.0145    -0.0203 C.ar    
   5 C5             2.3854     1.4157    -0.0131 C.ar    
   6 C6             1.1635     2.0925     0.0022 C.ar    
   7 N7             3.6327     3.5195    -0.0141 N.am    
   8 C8             3.6522     2.1719    -0.0211 C.2     
   9 C9             5.9594     3.6950    -2.3572 C.ar    
  10 C10            5.3378     4.5309    -1.4445 C.ar    
  11 C11            6.2785     4.1580    -3.6186 C.ar    
  12 C12            5.9769     5.4600    -3.9723 C.ar    
  13 C13            5.3575     6.2952    -3.0635 C.ar    
  14 C14            5.0363     5.8326    -1.7982 C.ar    
  15 O15            4.7139     1.5794    -0.0340 O.2     
  16 Cl16           1.2147    -2.4225    -0.0209 Cl      
  17 C17            4.3659     6.5360    -0.6376 C.3     
  18 C18            4.6838     5.6683     0.5987 C.3     
  19 C19            4.8906     4.2704    -0.0221 C.3     
  20 O20            3.5819    -0.6538    -0.0342 O.3     
  21 H21           -0.9607     1.9055     0.0169 H       
  22 H22           -0.9276    -0.5537     0.0079 H       
  23 H23            1.1437     3.1723     0.0075 H       
  24 H24            2.7857     3.9922    -0.0038 H       
  25 H25            6.1994     2.6791    -2.0801 H       
  26 H26            6.7636     3.5037    -4.3278 H       
  27 H27            6.2260     5.8238    -4.9582 H       
  28 H28            5.1224     7.3123    -3.3404 H       
  29 H29            4.7781     7.5373    -0.5130 H       
  30 H30            3.2888     6.5867    -0.7972 H       
  31 H31            5.5938     6.0126     1.0900 H       
  32 H32            3.8448     5.6630     1.2945 H       
  33 H33            5.6599     3.7242     0.5238 H       
  34 H34            3.9161    -0.8433    -0.9216 H       
@<TRIPOS>BOND
   1    1    2 ar
   2    1    6 ar
   3    1   21 1
   4    2    3 ar
   5    2   22 1
   6    3    4 ar
   7    3   16 1
   8    4    5 ar
   9    4   20 1
  10    5    6 ar
  11    5    8 1
  12    6   23 1
  13    7    8 am
  14    7   19 1
  15    7   24 1
  16    8   15 2
  17    9   10 ar
  18    9   11 ar
  19    9   25 1
  20   10   14 ar
  21   10   19 1
  22   11   12 ar
  23   11   26 1
  24   12   13 ar
  25   12   27 1
  26   13   14 ar
  27   13   28 1
  28   14   17 1
  29   17   18 1
  30   17   29 1
  31   17   30 1
  32   18   19 1
  33   18   31 1
  34   18   32 1
  35   19   33 1
  36   20   34 1

#	End of record

