#	Name: ASD01148709
#	Creating user name:	WinNT
#	Creation time:	15. 06. 2019 19:03

#	Modifying user name:	WinNT
#	Modification time:	15. 06. 2019 19:03

#	Program:	/corina/corina34_cracker 3.40 0067  02.08.2006

@<TRIPOS>MOLECULE
ASD01148709
  72   76    0    0    0
SMALL
NO_CHARGES


@<TRIPOS>ATOM
   1 C1            -1.9730    -2.7580     7.3241 C.3     
   2 C2            -0.9472    -3.8130     7.7434 C.3     
   3 C3             0.4626    -3.2333     7.6149 C.3     
   4 C4            -1.7198    -2.3518     5.8707 C.3     
   5 C5            -0.3104    -1.7713     5.7422 C.3     
   6 C6            -0.0568    -1.3608     4.2904 C.3     
   7 C7             1.3522    -0.7777     4.1634 C.3     
   8 C8             2.3791    -1.8319     4.5790 C.3     
   9 C9             3.7816    -1.2568     4.5130 C.3     
  10 C10            4.2715    -0.8438     3.1211 C.3     
  11 C11            5.8170    -0.8817     3.2716 C.3     
  12 C12            6.1185    -1.8550     4.4384 C.3     
  13 C13            4.7621    -2.4091     4.8622 C.3     
  14 C14            4.4249    -3.6461     4.0274 C.3     
  15 C15            4.5889    -2.7222     6.3354 C.3     
  16 C16            3.1564    -3.2484     6.5269 C.3     
  17 C17            2.1240    -2.2379     6.0388 C.3     
  18 C18            0.7173    -2.8244     6.1624 C.3     
  19 N19            6.9900    -2.9404     3.9817 N.pl3   
  20 O20            7.2900    -3.8421     4.7436 O.2     
  21 O21            7.4145    -2.9411     2.8401 O.2     
  22 C22           -3.3831    -3.3374     7.4536 C.3     
  23 O23           -1.8494    -1.6113     8.1678 O.3     
  24 C24            2.9948    -4.5316     5.7532 C.ar    
  25 C25            3.7456    -5.6417     6.0939 C.ar    
  26 C26            3.6000    -6.8192     5.3870 C.ar    
  27 C27            2.6981    -6.8875     4.3327 C.ar    
  28 C28            1.9454    -5.7704     3.9932 C.ar    
  29 C29            2.0919    -4.5978     4.7079 C.ar    
  30 N30            2.5486    -8.0766     3.6154 N.pl3   
  31 C31            3.3436    -9.2536     3.9745 C.3     
  32 C32            1.5969    -8.1468     2.5038 C.3     
  33 H33           -1.1275    -4.1038     8.7784 H       
  34 H34           -1.0408    -4.6870     7.0989 H       
  35 H35            0.5561    -2.3595     8.2598 H       
  36 H36            1.1930    -3.9850     7.9140 H       
  37 H37           -1.8124    -3.2269     5.2274 H       
  38 H38           -2.4508    -1.6011     5.5705 H       
  39 H39           -0.2174    -0.8979     6.3877 H       
  40 H40           -0.1482    -2.2342     3.6447 H       
  41 H41           -0.7888    -0.6103     3.9920 H       
  42 H42            1.5317    -0.4834     3.1293 H       
  43 H43            1.4443     0.0944     4.8107 H       
  44 H44            2.3048    -2.6979     3.9212 H       
  45 H45            3.8841    -0.4275     5.2128 H       
  46 H46            3.9397    -1.5581     2.3676 H       
  47 H47            3.9324     0.1627     2.8757 H       
  48 H48            6.2736    -1.2473     2.3518 H       
  49 H49            6.1944     0.1134     3.5073 H       
  50 H50            6.5831    -1.3196     5.2664 H       
  51 H51            4.9948    -3.6240     3.0985 H       
  52 H52            4.6806    -4.5444     4.5893 H       
  53 H53            3.3589    -3.6512     3.7996 H       
  54 H54            5.3072    -3.4834     6.6396 H       
  55 H55            4.7335    -1.8176     6.9261 H       
  56 H56            2.9876    -3.4466     7.5854 H       
  57 H57            2.1781    -1.3482     6.6662 H       
  58 H58            0.6289    -3.6975     5.5159 H       
  59 H59           -3.5630    -3.6277     8.4887 H       
  60 H60           -4.1137    -2.5858     7.1548 H       
  61 H61           -3.4772    -4.2118     6.8095 H       
  62 H62           -1.9966    -1.7953     9.1056 H       
  63 H63            4.4470    -5.5878     6.9134 H       
  64 H64            4.1870    -7.6857     5.6533 H       
  65 H65            1.2433    -5.8202     3.1741 H       
  66 H66            1.5036    -3.7303     4.4475 H       
  67 H67            2.8034    -9.8450     4.7138 H       
  68 H68            3.5206    -9.8578     3.0847 H       
  69 H69            4.2981    -8.9336     4.3923 H       
  70 H70            2.0982    -7.8647     1.5780 H       
  71 H71            1.2161    -9.1643     2.4153 H       
  72 H72            0.7684    -7.4638     2.6912 H       
@<TRIPOS>BOND
   1    1    2 1
   2    1    4 1
   3    1   22 1
   4    1   23 1
   5    2    3 1
   6    2   33 1
   7    2   34 1
   8    3   18 1
   9    3   35 1
  10    3   36 1
  11    4    5 1
  12    4   37 1
  13    4   38 1
  14    5    6 1
  15    5   18 1
  16    5   39 1
  17    6    7 1
  18    6   40 1
  19    6   41 1
  20    7    8 1
  21    7   42 1
  22    7   43 1
  23    8    9 1
  24    8   17 1
  25    8   44 1
  26    9   10 1
  27    9   13 1
  28    9   45 1
  29   10   11 1
  30   10   46 1
  31   10   47 1
  32   11   12 1
  33   11   48 1
  34   11   49 1
  35   12   13 1
  36   12   19 1
  37   12   50 1
  38   13   14 1
  39   13   15 1
  40   14   51 1
  41   14   52 1
  42   14   53 1
  43   15   16 1
  44   15   54 1
  45   15   55 1
  46   16   24 1
  47   16   17 1
  48   16   56 1
  49   17   18 1
  50   17   57 1
  51   18   58 1
  52   19   20 2
  53   19   21 2
  54   22   59 1
  55   22   60 1
  56   22   61 1
  57   23   62 1
  58   24   25 ar
  59   24   29 ar
  60   25   26 ar
  61   25   63 1
  62   26   27 ar
  63   26   64 1
  64   27   28 ar
  65   27   30 1
  66   28   29 ar
  67   28   65 1
  68   29   66 1
  69   30   31 1
  70   30   32 1
  71   31   67 1
  72   31   68 1
  73   31   69 1
  74   32   70 1
  75   32   71 1
  76   32   72 1

#	End of record

