#	Name: ASD03090035
#	Creating user name:	WinNT
#	Creation time:	15. 06. 2019 20:28

#	Modifying user name:	WinNT
#	Modification time:	15. 06. 2019 20:28

#	Program:	/corina/corina34_cracker 3.40 0067  02.08.2006

@<TRIPOS>MOLECULE
ASD03090035
 142  143    0    0    0
SMALL
NO_CHARGES


@<TRIPOS>ATOM
   1 C1            -0.0167     1.3831     0.0096 C.ar    
   2 C2             0.0021    -0.0041     0.0020 C.ar    
   3 C3             1.2141    -0.6789    -0.0132 C.ar    
   4 C4             2.3989     0.0314    -0.0207 C.ar    
   5 C5             2.3774     1.4139    -0.0126 C.ar    
   6 C6             1.1708     2.0889     0.0021 C.ar    
   7 O7            -1.1648    -0.7006     0.0099 O.3     
   8 C8             3.6714     2.1863    -0.0198 C.3     
   9 C9             4.0963     2.4560    -1.4647 C.3     
  10 N10            4.3992     1.1862    -2.1296 N.am    
  11 C11            5.3726     0.3884    -1.6475 C.2     
  12 C12            5.6842    -0.9177    -2.3315 C.3     
  13 C13            6.8204    -1.6239    -1.5891 C.3     
  14 C14            7.1367    -2.9500    -2.2836 C.3     
  15 C15            5.3224     3.3321    -1.4725 C.2     
  16 N16            5.2010     4.6627    -1.2954 N.am    
  17 C17            6.3930     5.5144    -1.3030 C.3     
  18 C18            5.9803     6.9711    -1.0824 C.3     
  19 C19            7.2251     7.8607    -1.0903 C.3     
  20 N20            6.8289     9.2593    -0.8786 N.3     
  21 C21            8.0011    10.1446    -0.8801 C.3     
  22 O22            6.4184     2.8399    -1.6381 O.2     
  23 C23            7.5495    11.5893    -0.6574 C.3     
  24 C24            8.7704    12.5113    -0.6590 C.3     
  25 C25            8.3188    13.9561    -0.4362 C.3     
  26 C26            9.5397    14.8781    -0.4378 C.3     
  27 C27            9.0881    16.3229    -0.2151 C.3     
  28 N28           10.2604    17.2081    -0.2166 N.3     
  29 C29            9.8641    18.6068    -0.0049 C.3     
  30 C30           11.1089    19.4963    -0.0128 C.3     
  31 C31           10.6963    20.9530     0.2077 C.3     
  32 C32           11.9411    21.8425     0.1998 C.3     
  33 C33           11.5284    23.2992     0.4204 C.3     
  34 C34           12.7732    24.1887     0.4124 C.3     
  35 C35           12.3605    25.6454     0.6330 C.3     
  36 C36           13.6053    26.5350     0.6250 C.3     
  37 C37           13.1926    27.9916     0.8456 C.3     
  38 C38           14.4375    28.8812     0.8376 C.3     
  39 C39           14.0248    30.3379     1.0582 C.3     
  40 C40           15.2696    31.2274     1.0503 C.3     
  41 N41           14.8734    32.6260     1.2620 N.3     
  42 C42           16.0456    33.5113     1.2605 C.3     
  43 C43           15.5940    34.9560     1.4832 C.3     
  44 C44           16.8149    35.8781     1.4816 C.3     
  45 C45           16.3633    37.3228     1.7044 C.3     
  46 C46           17.5842    38.2449     1.7028 C.3     
  47 C47           17.1326    39.6896     1.9255 C.3     
  48 N48           18.3049    40.5749     1.9240 N.3     
  49 C49           17.9086    41.9735     2.1357 C.3     
  50 C50           19.1347    42.8497     2.1279 C.ar    
  51 C51           19.6888    43.2738     3.3199 C.ar    
  52 C52           20.8139    44.0778     3.3134 C.ar    
  53 C53           21.3869    44.4592     2.1145 C.ar    
  54 C54           20.8362    44.0379     0.9194 C.ar    
  55 C55           19.7113    43.2263     0.9234 C.ar    
  56 O56           19.1678    42.8107    -0.2508 O.3     
  57 C57           19.8066    43.2476    -1.4521 C.3     
  58 O58            5.9978     0.7216    -0.6631 O.2     
  59 H59           -0.9590     1.9108     0.0170 H       
  60 H60            1.2314    -1.7588    -0.0188 H       
  61 H61            3.3426    -0.4935    -0.0325 H       
  62 H62            1.1567     3.1688     0.0084 H       
  63 H63           -1.5113    -0.8975    -0.8712 H       
  64 H64            3.5318     3.1338     0.5007 H       
  65 H65            4.4441     1.6055     0.4838 H       
  66 H66            3.2869     2.9591    -1.9936 H       
  67 H67            3.8992     0.9197    -2.9170 H       
  68 H68            4.7974    -1.5515    -2.3259 H       
  69 H69            5.9869    -0.7256    -3.3609 H       
  70 H70            7.7072    -0.9902    -1.5947 H       
  71 H71            6.5177    -1.8160    -0.5597 H       
  72 H72            7.9462    -3.4531    -1.7547 H       
  73 H73            6.2499    -3.5837    -2.2779 H       
  74 H74            7.4395    -2.7579    -3.3129 H       
  75 H75            4.3245     5.0564    -1.1629 H       
  76 H76            7.0672     5.2030    -0.5051 H       
  77 H77            6.8996     5.4218    -2.2636 H       
  78 H78            5.3061     7.2825    -1.8803 H       
  79 H79            5.4736     7.0638    -0.1218 H       
  80 H80            7.8993     7.5492    -0.2925 H       
  81 H81            7.7318     7.7680    -2.0510 H       
  82 H82            6.1536     9.5522    -1.5687 H       
  83 H83            8.6807     9.8490    -0.0808 H       
  84 H84            8.5132    10.0677    -1.8393 H       
  85 H85            6.8699    11.8849    -1.4567 H       
  86 H86            7.0375    11.6661     0.3018 H       
  87 H87            9.4500    12.2158     0.1403 H       
  88 H88            9.2825    12.4345    -1.6182 H       
  89 H89            7.6392    14.2517    -1.2356 H       
  90 H90            7.8067    14.0329     0.5230 H       
  91 H91           10.2193    14.5825     0.3615 H       
  92 H92           10.0518    14.8013    -1.3970 H       
  93 H93            8.4085    16.6184    -1.0144 H       
  94 H94            8.5760    16.3997     0.7441 H       
  95 H95           10.9356    16.9152     0.4735 H       
  96 H96            9.1899    18.9182    -0.8027 H       
  97 H97            9.3575    18.6994     0.9558 H       
  98 H98           11.7831    19.1849     0.7851 H       
  99 H99           11.6156    19.4036    -0.9734 H       
 100 H100          10.0221    21.2644    -0.5901 H       
 101 H101          10.1896    21.0456     1.1684 H       
 102 H102          12.6153    21.5311     0.9977 H       
 103 H103          12.4477    21.7499    -0.7608 H       
 104 H104          10.8542    23.6106    -0.3775 H       
 105 H105          11.0217    23.3918     1.3810 H       
 106 H106          13.4474    23.8773     1.2103 H       
 107 H107          13.2799    24.0961    -0.5482 H       
 108 H108          11.6863    25.9568    -0.1649 H       
 109 H109          11.8539    25.7381     1.5936 H       
 110 H110          14.2795    26.2235     1.4229 H       
 111 H111          14.1120    26.4423    -0.3356 H       
 112 H112          12.5185    28.3031     0.0477 H       
 113 H113          12.6860    28.0843     1.8062 H       
 114 H114          15.1117    28.5698     1.6355 H       
 115 H115          14.9441    28.7885    -0.1230 H       
 116 H116          13.3506    30.6493     0.2603 H       
 117 H117          13.5181    30.4305     2.0188 H       
 118 H118          15.9438    30.9160     1.8481 H       
 119 H119          15.7763    31.1348     0.0896 H       
 120 H120          14.1981    32.9190     0.5719 H       
 121 H121          16.7252    33.2157     2.0598 H       
 122 H122          16.5577    33.4345     0.3013 H       
 123 H123          14.9144    35.2516     0.6839 H       
 124 H124          15.0819    35.0328     2.4424 H       
 125 H125          17.4945    35.5825     2.2809 H       
 126 H126          17.3270    35.8013     0.5224 H       
 127 H127          15.6837    37.6184     0.9050 H       
 128 H128          15.8512    37.3996     2.6636 H       
 129 H129          18.2638    37.9493     2.5021 H       
 130 H130          18.0963    38.1681     0.7436 H       
 131 H131          16.4530    39.9852     1.1262 H       
 132 H132          16.6205    39.7664     2.8847 H       
 133 H133          18.9801    40.2819     2.6141 H       
 134 H134          17.2344    42.2849     1.3379 H       
 135 H135          17.4020    42.0661     3.0964 H       
 136 H136          19.2428    42.9775     4.2579 H       
 137 H137          21.2454    44.4087     4.2466 H       
 138 H138          22.2655    45.0872     2.1121 H       
 139 H139          21.2840    44.3364    -0.0169 H       
 140 H140          19.2736    42.8459    -2.3138 H       
 141 H141          19.7960    44.3368    -1.4937 H       
 142 H142          20.8374    42.8936    -1.4649 H       
@<TRIPOS>BOND
   1    1    2 ar
   2    1    6 ar
   3    1   59 1
   4    2    3 ar
   5    2    7 1
   6    3    4 ar
   7    3   60 1
   8    4    5 ar
   9    4   61 1
  10    5    6 ar
  11    5    8 1
  12    6   62 1
  13    7   63 1
  14    8    9 1
  15    8   64 1
  16    8   65 1
  17    9   10 1
  18    9   15 1
  19    9   66 1
  20   10   11 am
  21   10   67 1
  22   11   12 1
  23   11   58 2
  24   12   13 1
  25   12   68 1
  26   12   69 1
  27   13   14 1
  28   13   70 1
  29   13   71 1
  30   14   72 1
  31   14   73 1
  32   14   74 1
  33   15   16 am
  34   15   22 2
  35   16   17 1
  36   16   75 1
  37   17   18 1
  38   17   76 1
  39   17   77 1
  40   18   19 1
  41   18   78 1
  42   18   79 1
  43   19   20 1
  44   19   80 1
  45   19   81 1
  46   20   21 1
  47   20   82 1
  48   21   23 1
  49   21   83 1
  50   21   84 1
  51   23   24 1
  52   23   85 1
  53   23   86 1
  54   24   25 1
  55   24   87 1
  56   24   88 1
  57   25   26 1
  58   25   89 1
  59   25   90 1
  60   26   27 1
  61   26   91 1
  62   26   92 1
  63   27   28 1
  64   27   93 1
  65   27   94 1
  66   28   29 1
  67   28   95 1
  68   29   30 1
  69   29   96 1
  70   29   97 1
  71   30   31 1
  72   30   98 1
  73   30   99 1
  74   31   32 1
  75   31  100 1
  76   31  101 1
  77   32   33 1
  78   32  102 1
  79   32  103 1
  80   33   34 1
  81   33  104 1
  82   33  105 1
  83   34   35 1
  84   34  106 1
  85   34  107 1
  86   35   36 1
  87   35  108 1
  88   35  109 1
  89   36   37 1
  90   36  110 1
  91   36  111 1
  92   37   38 1
  93   37  112 1
  94   37  113 1
  95   38   39 1
  96   38  114 1
  97   38  115 1
  98   39   40 1
  99   39  116 1
 100   39  117 1
 101   40   41 1
 102   40  118 1
 103   40  119 1
 104   41   42 1
 105   41  120 1
 106   42   43 1
 107   42  121 1
 108   42  122 1
 109   43   44 1
 110   43  123 1
 111   43  124 1
 112   44   45 1
 113   44  125 1
 114   44  126 1
 115   45   46 1
 116   45  127 1
 117   45  128 1
 118   46   47 1
 119   46  129 1
 120   46  130 1
 121   47   48 1
 122   47  131 1
 123   47  132 1
 124   48   49 1
 125   48  133 1
 126   49   50 1
 127   49  134 1
 128   49  135 1
 129   50   51 ar
 130   50   55 ar
 131   51   52 ar
 132   51  136 1
 133   52   53 ar
 134   52  137 1
 135   53   54 ar
 136   53  138 1
 137   54   55 ar
 138   54  139 1
 139   55   56 1
 140   56   57 1
 141   57  140 1
 142   57  141 1
 143   57  142 1

#	End of record

