#	Name: ASD01870022
#	Creating user name:	WinNT
#	Creation time:	15. 06. 2019 19:38

#	Modifying user name:	WinNT
#	Modification time:	15. 06. 2019 19:38

#	Program:	/corina/corina34_cracker 3.40 0067  02.08.2006

@<TRIPOS>MOLECULE
ASD01870022
  50   53    0    0    0
SMALL
NO_CHARGES


@<TRIPOS>ATOM
   1 C1            -0.4099     1.0447     1.3251 C.ar    
   2 C2            -1.6547     0.5985     1.7640 C.ar    
   3 N3            -2.3987     0.1364     0.6710 N.pl3   
   4 C4            -1.6984     0.6661    -0.5362 C.3     
   5 N5            -0.3474     0.9656    -0.0792 N.pl3   
   6 C6             0.5219     1.5082     2.2442 C.ar    
   7 C7             0.2107     1.5478     3.5899 C.ar    
   8 C8            -1.0367     1.1237     4.0286 C.ar    
   9 C9            -1.9686     0.6501     3.1169 C.ar    
  10 C10           -3.4424    -0.6854     0.2849 C.2     
  11 C11           -3.3251    -1.3735    -0.8722 C.2     
  12 S12           -1.7495    -0.8655    -1.5490 S.3     
  13 C13           -4.2840    -2.3324    -1.4491 C.2     
  14 N14           -3.9527    -3.6860    -1.5333 N.pl3   
  15 C15           -2.6268    -4.1433    -1.1100 C.3     
  16 C16           -5.4725    -1.9056    -1.8922 C.2     
  17 C17           -2.7763    -5.1662     0.0180 C.3     
  18 C18           -1.3916    -5.6438     0.4602 C.3     
  19 C19           -0.6735    -6.2926    -0.7248 C.3     
  20 C20           -0.5240    -5.2697    -1.8528 C.3     
  21 C21           -1.9087    -4.7922    -2.2949 C.3     
  22 C22           -4.9308    -4.6491    -2.0450 C.3     
  23 N23           -1.3539     1.1745     5.3911 N.pl3   
  24 C24           -4.6807    -0.8107     1.1347 C.3     
  25 H25           -2.1964     1.5204    -0.9947 H       
  26 H26            0.4395     1.0870    -0.6332 H       
  27 H27            1.4931     1.8384     1.9064 H       
  28 H28            0.9387     1.9087     4.3014 H       
  29 H29           -2.9389     0.3213     3.4586 H       
  30 H30           -2.0455    -3.2926    -0.7544 H       
  31 H31           -6.2006    -2.6161    -2.2549 H       
  32 H32           -5.7036    -0.8506    -1.8872 H       
  33 H33           -3.2879    -4.7039     0.8622 H       
  34 H34           -3.3576    -6.0169    -0.3376 H       
  35 H35           -0.8103    -4.7930     0.8158 H       
  36 H36           -1.4980    -6.3724     1.2638 H       
  37 H37            0.3130    -6.6328    -0.4098 H       
  38 H38           -1.2548    -7.1433    -1.0804 H       
  39 H39            0.0573    -4.4190    -1.4972 H       
  40 H40           -0.0124    -5.7320    -2.6970 H       
  41 H41           -2.4900    -5.6429    -2.6506 H       
  42 H42           -1.8022    -4.0635    -3.0985 H       
  43 H43           -4.8831    -4.6718    -3.1338 H       
  44 H44           -4.7056    -5.6401    -1.6508 H       
  45 H45           -5.9316    -4.3521    -1.7313 H       
  46 H46           -0.7023     1.5059     6.0287 H       
  47 H47           -2.2252     0.8783     5.6976 H       
  48 H48           -5.3827    -0.0191     0.8727 H       
  49 H49           -5.1452    -1.7810     0.9592 H       
  50 H50           -4.4097    -0.7226     2.1868 H       
@<TRIPOS>BOND
   1    1    2 ar
   2    1    6 ar
   3    1    5 1
   4    2    3 1
   5    2    9 ar
   6    3    4 1
   7    3   10 1
   8    4    5 1
   9    4   12 1
  10    4   25 1
  11    5   26 1
  12    6    7 ar
  13    6   27 1
  14    7    8 ar
  15    7   28 1
  16    8    9 ar
  17    8   23 1
  18    9   29 1
  19   10   11 2
  20   10   24 1
  21   11   12 1
  22   11   13 1
  23   13   14 1
  24   13   16 2
  25   14   15 1
  26   14   22 1
  27   15   17 1
  28   15   21 1
  29   15   30 1
  30   16   31 1
  31   16   32 1
  32   17   18 1
  33   17   33 1
  34   17   34 1
  35   18   19 1
  36   18   35 1
  37   18   36 1
  38   19   20 1
  39   19   37 1
  40   19   38 1
  41   20   21 1
  42   20   39 1
  43   20   40 1
  44   21   41 1
  45   21   42 1
  46   22   43 1
  47   22   44 1
  48   22   45 1
  49   23   46 1
  50   23   47 1
  51   24   48 1
  52   24   49 1
  53   24   50 1

#	End of record

