#	Name: ASD01202031
#	Creating user name:	WinNT
#	Creation time:	15. 06. 2019 19:09

#	Modifying user name:	WinNT
#	Modification time:	15. 06. 2019 19:09

#	Program:	/corina/corina34_cracker 3.40 0067  02.08.2006

@<TRIPOS>MOLECULE
ASD01202031
  45   48    0    0    0
SMALL
NO_CHARGES


@<TRIPOS>ATOM
   1 C1             0.2414     1.7941    -0.0592 C.2     
   2 C2             0.1444     0.3312    -0.0037 C.2     
   3 C3             1.5769     2.0763    -0.1063 C.2     
   4 C4            -0.8723     2.7594    -0.0686 C.2     
   5 C5             1.4215    -0.1257    -0.0225 C.2     
   6 O6             2.2583     0.9263    -0.0836 O.3     
   7 O7            -0.6424     3.9526    -0.1178 O.2     
   8 N8            -2.1456     2.3198    -0.0227 N.am    
   9 C9             1.8273    -1.5462     0.0179 C.ar    
  10 C10           -3.1952     3.2296    -0.0316 C.2     
  11 S11           -3.0180     4.9260    -0.1054 S.3     
  12 N12           -4.4451     2.9152     0.0091 N.2     
  13 C13           -4.7724     5.1228    -0.0667 C.2     
  14 C14           -5.3361     3.9122    -0.0065 C.2     
  15 H15           -2.3289     1.3681     0.0165 H       
  16 C16            2.7426    -2.0434    -0.9176 C.ar    
  17 C17            3.1172    -3.3761    -0.8712 C.ar    
  18 C18            2.5884    -4.2113     0.0951 C.ar    
  19 C19            1.6829    -3.7237     1.0214 C.ar    
  20 C20            1.3047    -2.3973     0.9922 C.ar    
  21 C21            2.5448    -1.0615    -2.9917 C.2     
  22 C22            2.9959    -0.0757    -4.0385 C.3     
  23 O23            1.5384    -1.7075    -3.1640 O.2     
  24 C24            2.1819     3.4549    -0.1732 C.3     
  25 C25           -6.8554     4.0533     0.0306 C.3     
  26 C26           -7.1371     5.4874    -0.4612 C.3     
  27 C27           -5.8291     6.2118    -0.0839 C.3     
  28 O28            3.2611    -1.2219    -1.8676 O.3     
  29 H29           -0.7581    -0.2602     0.0426 H       
  30 H30            3.8230    -3.7634    -1.5911 H       
  31 H31            2.8831    -5.2498     0.1271 H       
  32 H32            1.2741    -4.3832     1.7726 H       
  33 H33            0.5982    -2.0203     1.7169 H       
  34 H34            2.2939    -0.0844    -4.8723 H       
  35 H35            3.0325     0.9236    -3.6047 H       
  36 H36            3.9876    -0.3533    -4.3956 H       
  37 H37            2.3561     3.8247     0.8373 H       
  38 H38            3.1283     3.4106    -0.7120 H       
  39 H39            1.4988     4.1266    -0.6932 H       
  40 H40           -7.3195     3.3266    -0.6362 H       
  41 H41           -7.2230     3.9231     1.0484 H       
  42 H42           -7.2941     5.5064    -1.5396 H       
  43 H43           -7.9893     5.9195     0.0634 H       
  44 H44           -5.9178     6.6658     0.9031 H       
  45 H45           -5.5855     6.9683    -0.8299 H       
@<TRIPOS>BOND
   1    1    2 1
   2    1    3 2
   3    1    4 1
   4    2    5 2
   5    2   29 1
   6    3   24 1
   7    3    6 1
   8    4    7 2
   9    4    8 am
  10    5    9 1
  11    5    6 1
  12    8   15 1
  13    8   10 1
  14    9   16 ar
  15    9   20 ar
  16   10   12 2
  17   10   11 1
  18   11   13 1
  19   12   14 1
  20   13   14 2
  21   13   27 1
  22   14   25 1
  23   16   17 ar
  24   16   28 1
  25   17   18 ar
  26   17   30 1
  27   18   19 ar
  28   18   31 1
  29   19   20 ar
  30   19   32 1
  31   20   33 1
  32   21   22 1
  33   21   23 2
  34   21   28 1
  35   22   34 1
  36   22   35 1
  37   22   36 1
  38   24   37 1
  39   24   38 1
  40   24   39 1
  41   25   26 1
  42   25   40 1
  43   25   41 1
  44   26   27 1
  45   26   42 1
  46   26   43 1
  47   27   44 1
  48   27   45 1

#	End of record

