#	Name: ASD02408149
#	Creating user name:	WinNT
#	Creation time:	15. 06. 2019 20:21

#	Modifying user name:	WinNT
#	Modification time:	15. 06. 2019 20:21

#	Program:	/corina/corina34_cracker 3.40 0067  02.08.2006

@<TRIPOS>MOLECULE
ASD02408149
  50   52    0    0    0
SMALL
NO_CHARGES


@<TRIPOS>ATOM
   1 C1            -1.0525     1.7027     0.2331 C.ar    
   2 C2            -1.2992     0.3377     0.2264 C.ar    
   3 C3             0.2333     2.1741     0.0104 C.ar    
   4 C4             1.2643     1.2836    -0.2174 C.ar    
   5 C5             1.0158    -0.0768    -0.2235 C.ar    
   6 C6            -0.2644    -0.5490    -0.0019 C.ar    
   7 C7             0.5047     3.6564     0.0165 C.3     
   8 C8             0.7359     4.1190     1.4320 C.2     
   9 N9             0.9971     5.4212     1.6571 N.am    
  10 N10            0.6711     3.2454     2.3998 N.2     
  11 C11            0.8673     3.5990     3.6764 C.2     
  12 C12            1.1493     4.9407     3.9822 C.2     
  13 C13            1.2087     5.8702     2.9121 C.2     
  14 N14            0.7931     2.6602     4.6759 N.pl3   
  15 C15            0.1520     2.9812     5.9584 C.3     
  16 O16            1.4497     7.0466     3.1210 O.2     
  17 C17           -0.9207     1.9273     6.2508 C.3     
  18 C18           -0.2900     0.5341     6.1948 C.3     
  19 C19            0.2667     0.2803     4.7920 C.3     
  20 C20            1.3478     1.3137     4.4810 C.3     
  21 C21            0.8450     0.4469     7.2170 C.3     
  22 C22           -1.3509    -0.5192     6.5204 C.3     
  23 C23            1.3652     5.3589     5.3346 C.1     
  24 N24            1.5365     5.6906     6.4075 N.1     
  25 O25           -2.0696     2.5771     0.4519 O.3     
  26 C26           -3.3681     2.0209     0.6679 C.3     
  27 F27           -3.3383     1.1899     1.7929 F       
  28 F28           -4.2891     3.0534     0.8751 F       
  29 F29           -3.7482     1.2750    -0.4530 F       
  30 H30           -2.2991    -0.0317     0.3999 H       
  31 H31            2.2653     1.6500    -0.3911 H       
  32 H32            1.8232    -0.7715    -0.4022 H       
  33 H33           -0.4560    -1.6118    -0.0072 H       
  34 H34            1.3903     3.8662    -0.5835 H       
  35 H35           -0.3517     4.1843    -0.4029 H       
  36 H36            1.0337     6.0407     0.9116 H       
  37 H37            0.8986     2.9727     6.7524 H       
  38 H38           -0.3104     3.9665     5.8993 H       
  39 H39           -1.3376     2.0983     7.2433 H       
  40 H40           -1.7131     1.9982     5.5057 H       
  41 H41            0.6949    -0.7210     4.7461 H       
  42 H42           -0.5368     0.3667     4.0606 H       
  43 H43            1.6769     1.1988     3.4482 H       
  44 H44            2.1934     1.1718     5.1540 H       
  45 H45            0.4485     0.6264     8.2164 H       
  46 H46            1.2944    -0.5454     7.1773 H       
  47 H47            1.6008     1.1975     6.9858 H       
  48 H48           -2.1600    -0.4570     5.7926 H       
  49 H49           -0.9018    -1.5116     6.4805 H       
  50 H50           -1.7466    -0.3394     7.5199 H       
@<TRIPOS>BOND
   1    1    2 ar
   2    1    3 ar
   3    1   25 1
   4    2    6 ar
   5    2   30 1
   6    3    4 ar
   7    3    7 1
   8    4    5 ar
   9    4   31 1
  10    5    6 ar
  11    5   32 1
  12    6   33 1
  13    7    8 1
  14    7   34 1
  15    7   35 1
  16    8    9 1
  17    8   10 2
  18    9   13 am
  19    9   36 1
  20   10   11 1
  21   11   12 2
  22   11   14 1
  23   12   13 1
  24   12   23 1
  25   13   16 2
  26   14   15 1
  27   14   20 1
  28   15   17 1
  29   15   37 1
  30   15   38 1
  31   17   18 1
  32   17   39 1
  33   17   40 1
  34   18   19 1
  35   18   21 1
  36   18   22 1
  37   19   20 1
  38   19   41 1
  39   19   42 1
  40   20   43 1
  41   20   44 1
  42   21   45 1
  43   21   46 1
  44   21   47 1
  45   22   48 1
  46   22   49 1
  47   22   50 1
  48   23   24 3
  49   25   26 1
  50   26   27 1
  51   26   28 1
  52   26   29 1

#	End of record

