#	Name: ASD01813681
#	Creating user name:	WinNT
#	Creation time:	15. 06. 2019 19:30

#	Modifying user name:	WinNT
#	Modification time:	15. 06. 2019 19:30

#	Program:	/corina/corina34_cracker 3.40 0067  02.08.2006

@<TRIPOS>MOLECULE
ASD01813681
  43   46    0    0    0
SMALL
NO_CHARGES


@<TRIPOS>ATOM
   1 C1             0.0983     1.4750     0.3538 C.ar    
   2 C2             0.0800     0.0887     0.3457 C.ar    
   3 C3             1.2500    -0.6315     0.2164 C.ar    
   4 C4             2.4679     0.0344     0.0914 C.ar    
   5 C5             2.4849     1.4396     0.0992 C.ar    
   6 C6             1.2927     2.1561     0.2314 C.ar    
   7 N7             3.6438    -0.6744    -0.0375 N.pl3   
   8 C8             4.8383    -0.0817    -0.1595 C.2     
   9 C9             4.9808     1.2912    -0.1647 C.2     
  10 C10            3.7792     2.1315    -0.0337 C.2     
  11 O11            3.8520     3.3480    -0.0333 O.2     
  12 C12            6.3098     1.9038    -0.2998 C.2     
  13 O13            6.4360     3.2459    -0.3035 O.3     
  14 O14            7.2952     1.2002    -0.4081 O.2     
  15 C15            3.5837    -2.1382    -0.0406 C.3     
  16 C16            3.4403    -2.6321    -1.4571 C.ar    
  17 C17            4.5548    -2.7795    -2.2620 C.ar    
  18 N18            4.4446    -3.2107    -3.5038 N.ar    
  19 C19            3.2778    -3.5186    -4.0318 C.ar    
  20 C20            2.1074    -3.3967    -3.2856 C.ar    
  21 C21            2.1916    -2.9484    -1.9649 C.ar    
  22 F22            1.2149    -1.9821     0.2113 F       
  23 F23            1.3088     3.5070     0.2385 F       
  24 C24            0.7935    -3.7435    -3.8818 C.ar    
  25 C25            0.7203    -4.1956    -5.1977 C.ar    
  26 C26           -0.5043    -4.5172    -5.7471 C.ar    
  27 C27           -1.6576    -4.3910    -4.9940 C.ar    
  28 C28           -1.5908    -3.9427    -3.6871 C.ar    
  29 C29           -0.3708    -3.6237    -3.1259 C.ar    
  30 H30           -0.8264     2.0244     0.4517 H       
  31 H31           -0.8605    -0.4334     0.4422 H       
  32 H32            5.7196    -0.6984    -0.2566 H       
  33 H33            7.3303     3.6025    -0.3948 H       
  34 H34            4.4990    -2.5404     0.3935 H       
  35 H35            2.7272    -2.4679     0.5476 H       
  36 H36            5.5308    -2.5376    -1.8679 H       
  37 H37            3.2278    -3.8685    -5.0523 H       
  38 H38            1.3042    -2.8424    -1.3585 H       
  39 H39            1.6201    -4.2938    -5.7869 H       
  40 H40           -0.5622    -4.8677    -6.7670 H       
  41 H41           -2.6139    -4.6431    -5.4280 H       
  42 H42           -2.4944    -3.8457    -3.1036 H       
  43 H43           -0.3197    -3.2742    -2.1053 H       
@<TRIPOS>BOND
   1    1    2 ar
   2    1    6 ar
   3    1   30 1
   4    2    3 ar
   5    2   31 1
   6    3   22 1
   7    3    4 ar
   8    4    5 ar
   9    4    7 1
  10    5    6 ar
  11    5   10 1
  12    6   23 1
  13    7    8 1
  14    7   15 1
  15    8    9 2
  16    8   32 1
  17    9   10 1
  18    9   12 1
  19   10   11 2
  20   12   13 1
  21   12   14 2
  22   13   33 1
  23   15   16 1
  24   15   34 1
  25   15   35 1
  26   16   17 ar
  27   16   21 ar
  28   17   18 ar
  29   17   36 1
  30   18   19 ar
  31   19   20 ar
  32   19   37 1
  33   20   21 ar
  34   20   24 1
  35   21   38 1
  36   24   25 ar
  37   24   29 ar
  38   25   26 ar
  39   25   39 1
  40   26   27 ar
  41   26   40 1
  42   27   28 ar
  43   27   41 1
  44   28   29 ar
  45   28   42 1
  46   29   43 1

#	End of record

