#	Name: ASD01230454
#	Creating user name:	WinNT
#	Creation time:	15. 06. 2019 19:14

#	Modifying user name:	WinNT
#	Modification time:	15. 06. 2019 19:14

#	Program:	/corina/corina34_cracker 3.40 0067  02.08.2006

@<TRIPOS>MOLECULE
ASD01230454
  51   54    0    0    0
SMALL
NO_CHARGES


@<TRIPOS>ATOM
   1 S1             0.1574     1.4907    -0.1640 S.o2    
   2 N2             0.1205    -0.1635    -0.1518 N.am    
   3 C3             1.1045    -0.8887    -0.6258 C.2     
   4 N4             2.2553    -0.4012    -1.1766 N.pl3   
   5 C5             2.5265     1.0247    -1.3772 C.3     
   6 C6             1.9410     1.8509    -0.2283 C.3     
   7 C7             0.9258    -2.3540    -0.5425 C.2     
   8 C8             1.9363    -3.1794    -0.9857 C.2     
   9 C9             3.1043    -2.6046    -1.5055 C.2     
  10 C10            3.2371    -1.2695    -1.5848 C.2     
  11 C11           -0.3225    -2.9270     0.0102 C.ar    
  12 C12           -0.2890    -3.6653     1.1938 C.ar    
  13 C13           -1.4534    -4.1970     1.7059 C.ar    
  14 C14           -2.6586    -3.9989     1.0449 C.ar    
  15 C15           -2.6958    -3.2647    -0.1334 C.ar    
  16 C16           -1.5362    -2.7252    -0.6482 C.ar    
  17 O17           -3.8041    -4.5252     1.5519 O.3     
  18 C18           -3.7081    -5.3318     2.6381 C.2     
  19 C19           -4.2138    -4.9084     3.7612 C.2     
  20 C20           -4.1734    -5.6852     5.0447 C.3     
  21 C21           -3.8621    -7.1562     4.7607 C.3     
  22 C22           -2.6371    -7.2247     3.8403 C.3     
  23 C23           -3.0309    -6.6607     2.4717 C.3     
  24 C24           -3.5596    -7.8806     6.0740 C.3     
  25 C25           -5.0605    -7.8116     4.0713 C.3     
  26 O26           -0.4747     1.8534    -1.3839 O.2     
  27 O27           -0.3888     1.8698     1.0918 O.2     
  28 H28            3.6041     1.1830    -1.4210 H       
  29 H29            2.0780     1.3472    -2.3168 H       
  30 H30            2.0989     2.9129    -0.4164 H       
  31 H31            2.4118     1.5653     0.7123 H       
  32 H32            1.8301    -4.2528    -0.9330 H       
  33 H33            3.9067    -3.2420    -1.8463 H       
  34 H34            4.1539    -0.8632    -1.9859 H       
  35 H35            0.6480    -3.8202     1.7080 H       
  36 H36           -1.4283    -4.7685     2.6219 H       
  37 H37           -3.6348    -3.1130    -0.6449 H       
  38 H38           -1.5665    -2.1506    -1.5621 H       
  39 H39           -4.6907    -3.9395     3.7694 H       
  40 H40           -3.4015    -5.2712     5.6934 H       
  41 H41           -5.1399    -5.6101     5.5430 H       
  42 H42           -1.8263    -6.6326     4.2649 H       
  43 H43           -2.3189    -8.2614     3.7304 H       
  44 H44           -3.7102    -7.3526     1.9737 H       
  45 H45           -2.1352    -6.5361     1.8631 H       
  46 H46           -4.4253    -7.8146     6.7331 H       
  47 H47           -3.3383    -8.9280     5.8686 H       
  48 H48           -2.6998    -7.4153     6.5559 H       
  49 H49           -5.2655    -7.2974     3.1324 H       
  50 H50           -4.8359    -8.8591     3.8704 H       
  51 H51           -5.9339    -7.7453     4.7201 H       
@<TRIPOS>BOND
   1    1    2 am
   2    1    6 1
   3    1   26 2
   4    1   27 2
   5    2    3 2
   6    3    4 1
   7    3    7 1
   8    4    5 1
   9    4   10 1
  10    5    6 1
  11    5   28 1
  12    5   29 1
  13    6   30 1
  14    6   31 1
  15    7    8 2
  16    7   11 1
  17    8    9 1
  18    8   32 1
  19    9   10 2
  20    9   33 1
  21   10   34 1
  22   11   12 ar
  23   11   16 ar
  24   12   13 ar
  25   12   35 1
  26   13   14 ar
  27   13   36 1
  28   14   15 ar
  29   14   17 1
  30   15   16 ar
  31   15   37 1
  32   16   38 1
  33   17   18 1
  34   18   19 2
  35   18   23 1
  36   19   20 1
  37   19   39 1
  38   20   21 1
  39   20   40 1
  40   20   41 1
  41   21   22 1
  42   21   24 1
  43   21   25 1
  44   22   23 1
  45   22   42 1
  46   22   43 1
  47   23   44 1
  48   23   45 1
  49   24   46 1
  50   24   47 1
  51   24   48 1
  52   25   49 1
  53   25   50 1
  54   25   51 1

#	End of record

