#	Name: ASD04590383
#	Creating user name:	WinNT
#	Creation time:	15. 06. 2019 20:50

#	Modifying user name:	WinNT
#	Modification time:	15. 06. 2019 20:50

#	Program:	/corina/corina34_cracker 3.40 0067  02.08.2006

@<TRIPOS>MOLECULE
ASD04590383
  43   47    0    0    0
SMALL
NO_CHARGES


@<TRIPOS>ATOM
   1 C1            -0.0167     1.3834     0.0096 C.ar    
   2 C2             0.0021    -0.0041     0.0020 C.ar    
   3 C3             2.3948     0.0191    -0.0203 C.ar    
   4 C4             2.3756     1.4249    -0.0130 C.ar    
   5 C5             1.1624     2.0987     0.0022 C.ar    
   6 N6             3.6952    -0.3637    -0.0354 N.2     
   7 C7             4.4664     0.6967    -0.0378 C.2     
   8 N8             3.6970     1.8290    -0.0243 N.pl3   
   9 C9             5.9437     0.6731    -0.0528 C.2     
  10 C10            6.7565    -0.4839    -0.0674 C.2     
  11 C11            8.0503    -0.0801    -0.0787 C.2     
  12 N12            8.0625     1.2789    -0.0716 N.pl3   
  13 N13            6.7358     1.7273    -0.0608 N.2     
  14 N14            6.3041    -1.8136    -0.0690 N.am    
  15 C15            7.1920    -2.8275    -0.0836 C.2     
  16 O16            8.3850    -2.5909    -0.0955 O.2     
  17 C17            6.7172    -4.2231    -0.0854 C.2     
  18 C18            7.5001    -5.3528    -0.0994 C.2     
  19 C19            1.1863    -0.6848    -0.0125 C.ar    
  20 N20            6.6790    -6.4195    -0.0955 N.pl3   
  21 N21            5.3610    -5.9593    -0.0780 N.2     
  22 C22            5.3696    -4.6533    -0.0666 C.2     
  23 C23            9.0060    -5.4320    -0.1160 C.3     
  24 C24            9.4150    -6.8606     0.2666 C.3     
  25 C25            8.5953    -7.8557    -0.5604 C.3     
  26 C26            7.1318    -7.8147    -0.1091 C.3     
  27 H27           -0.9614     1.9069     0.0170 H       
  28 H28           -0.9290    -0.5513     0.0080 H       
  29 H29            1.1417     3.1785     0.0079 H       
  30 H30            4.0192     2.7439    -0.0234 H       
  31 H31            8.9174    -0.7238    -0.0905 H       
  32 H32            8.8531     1.8409    -0.0766 H       
  33 H33            5.3527    -2.0022    -0.0595 H       
  34 H34            1.1893    -1.7648    -0.0177 H       
  35 H35            4.4998    -4.0133    -0.0522 H       
  36 H36            9.3756    -5.1986    -1.1145 H       
  37 H37            9.4193    -4.7258     0.6041 H       
  38 H38           10.4760    -7.0032     0.0614 H       
  39 H39            9.2229    -7.0230     1.3272 H       
  40 H40            8.6573    -7.5888    -1.6154 H       
  41 H41            8.9917    -8.8608    -0.4165 H       
  42 H42            7.0466    -8.2357     0.8926 H       
  43 H43            6.5195    -8.3909    -0.8028 H       
@<TRIPOS>BOND
   1    1    2 ar
   2    1    5 ar
   3    1   27 1
   4    2   19 ar
   5    2   28 1
   6    3    4 ar
   7    3    6 1
   8    3   19 ar
   9    4    5 ar
  10    4    8 1
  11    5   29 1
  12    6    7 2
  13    7    8 1
  14    7    9 1
  15    8   30 1
  16    9   10 1
  17    9   13 2
  18   10   11 2
  19   10   14 1
  20   11   12 1
  21   11   31 1
  22   12   13 1
  23   12   32 1
  24   14   15 am
  25   14   33 1
  26   15   16 2
  27   15   17 1
  28   17   18 2
  29   17   22 1
  30   18   20 1
  31   18   23 1
  32   19   34 1
  33   20   21 1
  34   20   26 1
  35   21   22 2
  36   22   35 1
  37   23   24 1
  38   23   36 1
  39   23   37 1
  40   24   25 1
  41   24   38 1
  42   24   39 1
  43   25   26 1
  44   25   40 1
  45   25   41 1
  46   26   42 1
  47   26   43 1

#	End of record

