#	Name: ASD01910529
#	Creating user name:	WinNT
#	Creation time:	15. 06. 2019 19:56

#	Modifying user name:	WinNT
#	Modification time:	15. 06. 2019 19:56

#	Program:	/corina/corina34_cracker 3.40 0067  02.08.2006

@<TRIPOS>MOLECULE
ASD01910529
  44   47    0    0    0
SMALL
NO_CHARGES


@<TRIPOS>ATOM
   1 O1             0.1416     0.6207    -0.2510 O.3     
   2 C2             0.2996    -0.7131    -0.2104 C.2     
   3 N3             1.6045    -0.9373    -0.1566 N.2     
   4 C4             2.1775     0.2751    -0.1671 C.2     
   5 N5             1.2270     1.1612    -0.2251 N.2     
   6 C6            -0.7653    -1.7243    -0.2228 C.2     
   7 C7            -2.1095    -1.4790    -0.2787 C.2     
   8 C8            -2.7593    -2.7192    -0.2703 C.2     
   9 C9            -1.8106    -3.6826    -0.2103 C.2     
  10 N10           -0.5893    -3.0874    -0.1864 N.pl3   
  11 C11            3.9764     1.3980     1.1222 C.3     
  12 C12            3.6566     0.5599    -0.1196 C.3     
  13 C13            4.0680     1.3352    -1.3733 C.3     
  14 C14            5.5757     1.5963    -1.3419 C.3     
  15 C15            5.9172     2.4462    -0.1139 C.3     
  16 N16            5.3958     1.7758     1.0850 N.am    
  17 C17            6.2042     1.5121     2.1307 C.2     
  18 C18            5.6407     0.9567     3.3783 C.ar    
  19 O19            7.3970     1.7313     2.0472 O.2     
  20 C20           -4.2490    -2.9417    -0.3193 C.3     
  21 C21            4.4256     1.4356     3.8855 C.ar    
  22 C22            3.9403     0.8832     5.0556 C.ar    
  23 C23            4.6650    -0.1184     5.6846 C.ar    
  24 N24            5.8090    -0.5495     5.1822 N.ar    
  25 C25            6.3073    -0.0573     4.0674 C.ar    
  26 F26            4.1944    -0.6614     6.8287 F       
  27 H27           -2.5820    -0.5088    -0.3210 H       
  28 H28           -1.9935    -4.7467    -0.1894 H       
  29 H29            0.2638    -3.5472    -0.1443 H       
  30 H30            3.3591     2.2963     1.1256 H       
  31 H31            3.7776     0.8121     2.0196 H       
  32 H32            4.2073    -0.3798    -0.0760 H       
  33 H33            3.8190     0.7514    -2.2594 H       
  34 H34            3.5354     2.2858    -1.4034 H       
  35 H35            6.1082     0.6469    -1.2867 H       
  36 H36            5.8717     2.1281    -2.2461 H       
  37 H37            6.9990     2.5519    -0.0321 H       
  38 H38            5.4582     3.4300    -0.2113 H       
  39 H39           -4.5704    -3.0221    -1.3578 H       
  40 H40           -4.4966    -3.8619     0.2099 H       
  41 H41           -4.7575    -2.1021     0.1545 H       
  42 H42            3.8821     2.2170     3.3751 H       
  43 H43            3.0071     1.2279     5.4759 H       
  44 H44            7.2450    -0.4354     3.6876 H       
@<TRIPOS>BOND
   1    1    2 1
   2    1    5 1
   3    2    3 2
   4    2    6 1
   5    3    4 1
   6    4    5 2
   7    4   12 1
   8    6    7 2
   9    6   10 1
  10    7    8 1
  11    7   27 1
  12    8    9 2
  13    8   20 1
  14    9   10 1
  15    9   28 1
  16   10   29 1
  17   11   12 1
  18   11   16 1
  19   11   30 1
  20   11   31 1
  21   12   13 1
  22   12   32 1
  23   13   14 1
  24   13   33 1
  25   13   34 1
  26   14   15 1
  27   14   35 1
  28   14   36 1
  29   15   16 1
  30   15   37 1
  31   15   38 1
  32   16   17 am
  33   17   18 1
  34   17   19 2
  35   18   21 ar
  36   18   25 ar
  37   20   39 1
  38   20   40 1
  39   20   41 1
  40   21   22 ar
  41   21   42 1
  42   22   23 ar
  43   22   43 1
  44   23   24 ar
  45   23   26 1
  46   24   25 ar
  47   25   44 1

#	End of record

