#	Name: ASD01720152
#	Creating user name:	WinNT
#	Creation time:	15. 06. 2019 19:23

#	Modifying user name:	WinNT
#	Modification time:	15. 06. 2019 19:23

#	Program:	/corina/corina34_cracker 3.40 0067  02.08.2006

@<TRIPOS>MOLECULE
ASD01720152
 107  111    0    0    0
SMALL
NO_CHARGES


@<TRIPOS>ATOM
   1 C1            -0.0856     1.7877    -2.9955 C.ar    
   2 C2            -0.3941     1.6798    -4.3358 C.ar    
   3 C3             0.5096     2.1206    -5.2849 C.ar    
   4 C4             1.7100     2.6700    -4.8860 C.ar    
   5 C5             2.0212     2.7850    -3.5364 C.ar    
   6 C6             1.1249     2.3357    -2.5930 C.ar    
   7 C7             1.4110     2.3998    -1.1136 C.3     
   8 C8             3.3380     3.4200    -3.1749 C.3     
   9 C9             3.7525     3.0416    -1.7539 C.3     
  10 N10            2.5882     3.2414    -0.8742 N.am    
  11 C11            4.8888     3.9226    -1.3027 C.2     
  12 N12            5.9701     3.3776    -0.7109 N.am    
  13 O13            4.8303     5.1221    -1.4722 O.2     
  14 C14            7.0747     4.2341    -0.2723 C.3     
  15 C15            8.1677     3.3718     0.3624 C.3     
  16 C16            9.3213     4.2663     0.8205 C.3     
  17 C17           10.4142     3.4040     1.4552 C.3     
  18 C18           11.5679     4.2985     1.9133 C.3     
  19 C19           12.6957     3.4405     2.4260 C.2     
  20 N20           11.1034     5.1850     2.9832 N.am    
  21 N21           13.5419     2.8508     1.5585 N.am    
  22 O22           12.8420     3.2807     3.6193 O.2     
  23 C23           14.6384     2.0168     2.0569 C.3     
  24 C24           15.4425     1.4718     0.8749 C.3     
  25 C25           16.1078     2.6137     0.1507 C.ar    
  26 C26           16.4934     0.5169     1.3799 C.ar    
  27 C27           17.4957     0.9716     2.2163 C.ar    
  28 C28           18.4597     0.0957     2.6795 C.ar    
  29 C29           18.4211    -1.2348     2.3066 C.ar    
  30 C30           17.4183    -1.6896     1.4710 C.ar    
  31 C31           16.4518    -0.8147     1.0113 C.ar    
  32 C32           17.3527     4.6583     0.2034 C.ar    
  33 C33           16.7425     3.6107     0.8676 C.ar    
  34 C34           16.0881     2.6612    -1.2307 C.ar    
  35 C35           16.6983     3.7088    -1.8950 C.ar    
  36 C36           17.3277     4.7090    -1.1778 C.ar    
  37 C37            2.6039     4.1599     0.1119 C.2     
  38 O38            3.6211     4.7756     0.3511 O.2     
  39 C39            1.3575     4.4220     0.9175 C.3     
  40 C40            1.6439     5.5011     1.9636 C.3     
  41 C41            0.3975     5.7632     2.7692 C.2     
  42 C42            0.4146     6.7662     3.8460 C.ar    
  43 O43           -0.6195     5.1477     2.5301 O.2     
  44 C44           10.6211     4.6635     4.1286 C.2     
  45 O45           10.5715     3.4582     4.2739 O.2     
  46 O46           10.1942     5.4782     5.1118 O.3     
  47 C47            9.6874     4.8472     6.3173 C.3     
  48 C48           10.7872     3.9877     6.9440 C.3     
  49 C49            9.2526     5.9246     7.3129 C.3     
  50 C50            8.4884     3.9643     5.9654 C.3     
  51 C51            1.5921     8.4203     5.1316 C.ar    
  52 C52            1.5840     7.4822     4.1210 C.ar    
  53 C53           -0.7400     7.0122     4.5957 C.ar    
  54 C54           -0.7159     7.9535     5.6030 C.ar    
  55 C55            0.4468     8.6543     5.8726 C.ar    
  56 H56           -0.7929     1.4475    -2.2537 H       
  57 H57           -1.3374     1.2525    -4.6424 H       
  58 H58            0.2762     2.0345    -6.3358 H       
  59 H59            2.4146     3.0135    -5.6289 H       
  60 H60            0.5506     2.8238    -0.5959 H       
  61 H61            1.6010     1.3947    -0.7371 H       
  62 H62            4.1030     3.0816    -3.8737 H       
  63 H63            3.2444     4.5038    -3.2444 H       
  64 H64            4.0617     1.9968    -1.7260 H       
  65 H65            6.0169     2.4183    -0.5754 H       
  66 H66            7.4846     4.7665    -1.1306 H       
  67 H67            6.7081     4.9533     0.4601 H       
  68 H68            7.7578     2.8394     1.2207 H       
  69 H69            8.5343     2.6526    -0.3700 H       
  70 H70            9.7312     4.7987    -0.0378 H       
  71 H71            8.9547     4.9855     1.5530 H       
  72 H72           10.0044     2.8716     2.3135 H       
  73 H73           10.7808     2.6848     0.7228 H       
  74 H74           11.9196     4.8968     1.0728 H       
  75 H75           11.1430     6.1472     2.8672 H       
  76 H76           13.4250     2.9787     0.6041 H       
  77 H77           15.2894     2.6152     2.6942 H       
  78 H78           14.2302     1.1860     2.6326 H       
  79 H79           14.7742     0.9481     0.1913 H       
  80 H80           17.5259     2.0111     2.5076 H       
  81 H81           19.2432     0.4511     3.3324 H       
  82 H82           19.1747    -1.9190     2.6679 H       
  83 H83           17.3883    -2.7291     1.1794 H       
  84 H84           15.6662    -1.1708     0.3613 H       
  85 H85           17.8479     5.4376     0.7635 H       
  86 H86           16.7613     3.5715     1.9468 H       
  87 H87           15.5964     1.8798    -1.7910 H       
  88 H88           16.6836     3.7455    -2.9742 H       
  89 H89           17.8044     5.5274    -1.6968 H       
  90 H90            0.5611     4.7607     0.2547 H       
  91 H91            1.0483     3.5041     1.4174 H       
  92 H92            2.4403     5.1624     2.6264 H       
  93 H93            1.9531     6.4190     1.4637 H       
  94 H94           11.6413     4.6167     7.1948 H       
  95 H95           10.4067     3.5139     7.8490 H       
  96 H96           11.0969     3.2201     6.2348 H       
  97 H97            8.4691     6.5369     6.8664 H       
  98 H98            8.8722     5.4508     8.2178 H       
  99 H99           10.1068     6.5535     7.5636 H       
 100 H100           8.7982     3.1967     5.2562 H       
 101 H101           8.1080     3.4905     6.8704 H       
 102 H102           7.7049     4.5766     5.5189 H       
 103 H103           2.4943     8.9741     5.3452 H       
 104 H104           2.4785     7.3007     3.5436 H       
 105 H105          -1.6482     6.4667     4.3861 H       
 106 H106          -1.6067     8.1447     6.1829 H       
 107 H107           0.4595     9.3898     6.6633 H       
@<TRIPOS>BOND
   1    1    2 ar
   2    1    6 ar
   3    1   56 1
   4    2    3 ar
   5    2   57 1
   6    3    4 ar
   7    3   58 1
   8    4    5 ar
   9    4   59 1
  10    5    6 ar
  11    5    8 1
  12    6    7 1
  13    7   10 1
  14    7   60 1
  15    7   61 1
  16    8    9 1
  17    8   62 1
  18    8   63 1
  19    9   10 1
  20    9   11 1
  21    9   64 1
  22   10   37 am
  23   11   12 am
  24   11   13 2
  25   12   14 1
  26   12   65 1
  27   14   15 1
  28   14   66 1
  29   14   67 1
  30   15   16 1
  31   15   68 1
  32   15   69 1
  33   16   17 1
  34   16   70 1
  35   16   71 1
  36   17   18 1
  37   17   72 1
  38   17   73 1
  39   18   19 1
  40   18   20 1
  41   18   74 1
  42   19   21 am
  43   19   22 2
  44   20   44 am
  45   20   75 1
  46   21   23 1
  47   21   76 1
  48   23   24 1
  49   23   77 1
  50   23   78 1
  51   24   25 1
  52   24   26 1
  53   24   79 1
  54   25   34 ar
  55   25   33 ar
  56   26   27 ar
  57   26   31 ar
  58   27   28 ar
  59   27   80 1
  60   28   29 ar
  61   28   81 1
  62   29   30 ar
  63   29   82 1
  64   30   31 ar
  65   30   83 1
  66   31   84 1
  67   32   33 ar
  68   32   36 ar
  69   32   85 1
  70   33   86 1
  71   34   35 ar
  72   34   87 1
  73   35   36 ar
  74   35   88 1
  75   36   89 1
  76   37   38 2
  77   37   39 1
  78   39   40 1
  79   39   90 1
  80   39   91 1
  81   40   41 1
  82   40   92 1
  83   40   93 1
  84   41   42 1
  85   41   43 2
  86   42   53 ar
  87   42   52 ar
  88   44   45 2
  89   44   46 1
  90   46   47 1
  91   47   48 1
  92   47   49 1
  93   47   50 1
  94   48   94 1
  95   48   95 1
  96   48   96 1
  97   49   97 1
  98   49   98 1
  99   49   99 1
 100   50  100 1
 101   50  101 1
 102   50  102 1
 103   51   52 ar
 104   51   55 ar
 105   51  103 1
 106   52  104 1
 107   53   54 ar
 108   53  105 1
 109   54   55 ar
 110   54  106 1
 111   55  107 1

#	End of record

