#	Name: ASD01940296
#	Creating user name:	WinNT
#	Creation time:	15. 06. 2019 20:12

#	Modifying user name:	WinNT
#	Modification time:	15. 06. 2019 20:12

#	Program:	/corina/corina34_cracker 3.40 0067  02.08.2006

@<TRIPOS>MOLECULE
ASD01940296
  35   36    0    0    0
SMALL
NO_CHARGES


@<TRIPOS>ATOM
   1 F1             0.0697    -0.0356     1.7463 F       
   2 C2            -0.7577     0.2157     0.7083 C.ar    
   3 C3            -0.5877    -0.4555    -0.4902 C.ar    
   4 C4            -1.4342    -0.2009    -1.5563 C.ar    
   5 C5            -2.4549     0.7268    -1.4278 C.ar    
   6 C6            -2.6306     1.4037    -0.2277 C.ar    
   7 C7            -1.7819     1.1431     0.8459 C.ar    
   8 N8            -1.9551     1.8241     2.0604 N.am    
   9 S9            -0.6940     2.6678     2.7238 S.o2    
  10 O10           -1.1965     3.1256     3.9717 O.2     
  11 O11            0.4022     1.7657     2.6620 O.2     
  12 F12           -1.2639    -0.8584    -2.7242 F       
  13 F13           -3.2788     0.9735    -2.4697 F       
  14 N14           -3.6625     2.3432    -0.0955 N.pl3   
  15 C15           -4.8879     1.9622     0.4595 C.ar    
  16 C16           -5.9602     2.8490     0.4576 C.ar    
  17 C17           -5.0396     0.6962     1.0085 C.ar    
  18 C18           -6.2521     0.3224     1.5558 C.ar    
  19 C19           -7.3145     1.2068     1.5572 C.ar    
  20 C20           -7.1701     2.4679     1.0070 C.ar    
  21 F21           -5.8190     4.0805    -0.0797 F       
  22 C22           -8.6352     0.7942     2.1544 C.3     
  23 C23           -0.4362     4.0613     1.5915 C.3     
  24 H24            0.2071    -1.1793    -0.5943 H       
  25 H25           -2.8136     1.8007     2.5114 H       
  26 H26           -3.5263     3.2576    -0.3891 H       
  27 H27           -4.2107     0.0039     1.0076 H       
  28 H28           -6.3700    -0.6625     1.9829 H       
  29 H29           -8.0021     3.1564     1.0100 H       
  30 H30           -8.6527     1.0548     3.2126 H       
  31 H31           -9.4444     1.3118     1.6393 H       
  32 H32           -8.7637    -0.2825     2.0431 H       
  33 H33           -1.3397     4.6698     1.5526 H       
  34 H34            0.3960     4.6690     1.9467 H       
  35 H35           -0.2101     3.6825     0.5947 H       
@<TRIPOS>BOND
   1    1    2 1
   2    2    3 ar
   3    2    7 ar
   4    3    4 ar
   5    3   24 1
   6    4    5 ar
   7    4   12 1
   8    5    6 ar
   9    5   13 1
  10    6    7 ar
  11    6   14 1
  12    7    8 1
  13    8    9 am
  14    8   25 1
  15    9   10 2
  16    9   11 2
  17    9   23 1
  18   14   15 1
  19   14   26 1
  20   15   16 ar
  21   15   17 ar
  22   16   21 1
  23   16   20 ar
  24   17   18 ar
  25   17   27 1
  26   18   19 ar
  27   18   28 1
  28   19   20 ar
  29   19   22 1
  30   20   29 1
  31   22   30 1
  32   22   31 1
  33   22   32 1
  34   23   33 1
  35   23   34 1
  36   23   35 1

#	End of record

