#	Name: ASD08170075
#	Creating user name:	WinNT
#	Creation time:	15. 06. 2019 21:17

#	Modifying user name:	WinNT
#	Modification time:	15. 06. 2019 21:17

#	Program:	/corina/corina34_cracker 3.40 0067  02.08.2006

@<TRIPOS>MOLECULE
ASD08170075
  63   66    0    0    0
SMALL
NO_CHARGES


@<TRIPOS>ATOM
   1 N1            -0.0150     1.2583     0.0090 N.2     
   2 N2             0.0021    -0.0041     0.0020 N.2     
   3 C3             1.1271     1.8769     0.0014 C.2     
   4 S4             2.3826     0.7116    -0.0169 S.3     
   5 C5             1.1681    -0.5677    -0.0121 C.2     
   6 C6             1.4387    -2.0502    -0.0227 C.3     
   7 C7             1.5165    -2.5442    -1.4687 C.3     
   8 C8             2.1699    -6.2152    -3.4347 C.3     
   9 C9             2.2167    -6.5408    -4.9053 C.2     
  10 N10            3.2694    -6.5184    -5.6596 N.2     
  11 S11            0.8491    -7.0282    -5.9071 S.3     
  12 C12            1.9000    -7.1354    -7.2557 C.2     
  13 N13            3.1017    -6.8250    -6.8728 N.2     
  14 N14            1.5289    -7.4992    -8.5457 N.am    
  15 C15            2.4537    -7.5464    -9.5250 C.2     
  16 O16            3.6096    -7.2716    -9.2812 O.2     
  17 C17            2.0516    -7.9407   -10.9228 C.3     
  18 N18            1.3017     3.2566     0.0067 N.am    
  19 C19            0.2284     4.0717     0.0214 C.2     
  20 C20            0.4176     5.5667     0.0272 C.3     
  21 O21           -0.8897     3.6019     0.0299 O.2     
  22 C22            1.8986    -4.7206    -3.2516 C.3     
  23 C23            1.0053    -6.9562   -11.4503 C.3     
  24 S24            1.8422    -4.3286    -1.4814 S.3     
  25 C25            1.1851     5.9895    -1.2276 C.3     
  26 N26            1.3513     7.4485    -1.2329 N.3     
  27 C27            0.0516     8.1309    -1.2693 C.3     
  28 C28           -0.7497     7.7721    -0.0158 C.3     
  29 C29           -0.9501     6.2551     0.0391 C.3     
  30 C30            3.2803    -7.9100   -11.8360 C.3     
  31 C31            2.8525    -8.2531   -13.2657 C.3     
  32 C32            1.7830    -7.2596   -13.7252 C.3     
  33 N33            0.6286    -7.3277   -12.8201 N.3     
  34 H34            2.3843    -2.2506     0.4811 H       
  35 H35            0.6334    -2.5702     0.4961 H       
  36 H36            0.5709    -2.3438    -1.9724 H       
  37 H37            2.3218    -2.0242    -1.9874 H       
  38 H38            1.3741    -6.7896    -2.9605 H       
  39 H39            3.1250    -6.4700    -2.9755 H       
  40 H40            0.6045    -7.7190    -8.7407 H       
  41 H41            1.6315    -8.9464   -10.9106 H       
  42 H42            2.1959     3.6323    -0.0001 H       
  43 H43            0.9805     5.8589     0.9137 H       
  44 H44            2.6943    -4.1461    -3.7258 H       
  45 H45            0.9434    -4.4658    -3.7108 H       
  46 H46            0.1234    -6.9861   -10.8104 H       
  47 H47            1.4212    -5.9487   -11.4485 H       
  48 H48            2.1650     5.5122    -1.2319 H       
  49 H49            0.6286     5.6841    -2.1137 H       
  50 H50            1.8976     7.7530    -0.4411 H       
  51 H51            0.2083     9.2090    -1.3039 H       
  52 H52           -0.4995     7.8155    -2.1552 H       
  53 H53           -0.2056     8.0996     0.8701 H       
  54 H54           -1.7206     8.2664    -0.0506 H       
  55 H55           -1.5279     5.9324    -0.8270 H       
  56 H56           -1.4829     5.9908     0.9526 H       
  57 H57            3.7232    -6.9143   -11.8174 H       
  58 H58            4.0104    -8.6411   -11.4889 H       
  59 H59            3.7156    -8.1911   -13.9285 H       
  60 H60            2.4452    -9.2638   -13.2910 H       
  61 H61            2.1952    -6.2506   -13.7128 H       
  62 H62            1.4659    -7.5098   -14.7376 H       
  63 H63            0.2047    -8.2430   -12.8430 H       
@<TRIPOS>BOND
   1    1    2 1
   2    1    3 2
   3    2    5 2
   4    3    4 1
   5    3   18 1
   6    4    5 1
   7    5    6 1
   8    6    7 1
   9    6   34 1
  10    6   35 1
  11    7   24 1
  12    7   36 1
  13    7   37 1
  14    8    9 1
  15    8   22 1
  16    8   38 1
  17    8   39 1
  18    9   10 2
  19    9   11 1
  20   10   13 1
  21   11   12 1
  22   12   13 2
  23   12   14 1
  24   14   15 am
  25   14   40 1
  26   15   16 2
  27   15   17 1
  28   17   23 1
  29   17   30 1
  30   17   41 1
  31   18   19 am
  32   18   42 1
  33   19   20 1
  34   19   21 2
  35   20   25 1
  36   20   29 1
  37   20   43 1
  38   22   24 1
  39   22   44 1
  40   22   45 1
  41   23   33 1
  42   23   46 1
  43   23   47 1
  44   25   26 1
  45   25   48 1
  46   25   49 1
  47   26   27 1
  48   26   50 1
  49   27   28 1
  50   27   51 1
  51   27   52 1
  52   28   29 1
  53   28   53 1
  54   28   54 1
  55   29   55 1
  56   29   56 1
  57   30   31 1
  58   30   57 1
  59   30   58 1
  60   31   32 1
  61   31   59 1
  62   31   60 1
  63   32   33 1
  64   32   61 1
  65   32   62 1
  66   33   63 1

#	End of record

