#	Name: ASD01913952
#	Creating user name:	WinNT
#	Creation time:	15. 06. 2019 20:02

#	Modifying user name:	WinNT
#	Modification time:	15. 06. 2019 20:02

#	Program:	/corina/corina34_cracker 3.40 0067  02.08.2006

@<TRIPOS>MOLECULE
ASD01913952
  44   47    0    0    0
SMALL
NO_CHARGES


@<TRIPOS>ATOM
   1 C1             0.0565     1.3963    -0.4087 C.ar    
   2 C2             0.0527     0.0148    -0.3317 C.ar    
   3 C3             1.2468    -0.6756    -0.2307 C.ar    
   4 C4             2.4410     0.0242    -0.2073 C.ar    
   5 C5             2.4528     1.4280    -0.3155 C.ar    
   6 C6             1.2456     2.1012    -0.4011 C.ar    
   7 C7             3.7533    -0.6313    -0.0571 C.2     
   8 C8             4.8697     0.1445     0.1851 C.2     
   9 C9             4.7765     1.6366     0.3264 C.3     
  10 O10            3.6250     2.1053    -0.3812 O.3     
  11 N11            4.1650    -1.9095    -0.1057 N.pl3   
  12 N12            5.4437    -1.9623     0.0714 N.2     
  13 C13            5.9387    -0.7464     0.2533 C.2     
  14 C14            7.3562    -0.4011     0.4845 C.2     
  15 N15            8.2335    -0.4350    -0.5380 N.am    
  16 C16            9.5939    -0.2148    -0.2997 C.ar    
  17 C17           10.1726    -0.6529     0.8839 C.ar    
  18 C18           11.5176    -0.4335     1.1162 C.ar    
  19 C19           12.2863     0.2219     0.1704 C.ar    
  20 C20           11.7117     0.6594    -1.0089 C.ar    
  21 C21           10.3701     0.4377    -1.2493 C.ar    
  22 Cl22          12.2428    -0.9801     2.5958 Cl      
  23 O23            7.7314    -0.0862     1.5973 O.2     
  24 C24            3.2954    -3.0679    -0.3254 C.3     
  25 C25            4.6511     2.0030     1.8065 C.3     
  26 C26            6.0337     2.2847    -0.2570 C.3     
  27 H27           -0.8799     1.9297    -0.4800 H       
  28 H28           -0.8829    -0.5244    -0.3500 H       
  29 H29            1.2476    -1.7539    -0.1700 H       
  30 H30            1.2331     3.1794    -0.4625 H       
  31 H31            7.9214    -0.6121    -1.4392 H       
  32 H32            9.5727    -1.1641     1.6223 H       
  33 H33           13.3369     0.3923     0.3537 H       
  34 H34           12.3142     1.1710    -1.7450 H       
  35 H35            9.9224     0.7798    -2.1707 H       
  36 H36            3.1334    -3.2029    -1.3948 H       
  37 H37            3.7677    -3.9600     0.0860 H       
  38 H38            2.3382    -2.9026     0.1690 H       
  39 H39            5.5265     1.6413     2.3458 H       
  40 H40            4.5835     3.0862     1.9082 H       
  41 H41            3.7538     1.5426     2.2200 H       
  42 H42            6.1709     1.9506    -1.2854 H       
  43 H43            5.9254     3.3691    -0.2387 H       
  44 H44            6.9006     1.9961     0.3375 H       
@<TRIPOS>BOND
   1    1    2 ar
   2    1    6 ar
   3    1   27 1
   4    2    3 ar
   5    2   28 1
   6    3    4 ar
   7    3   29 1
   8    4    5 ar
   9    4    7 1
  10    5    6 ar
  11    5   10 1
  12    6   30 1
  13    7    8 2
  14    7   11 1
  15    8    9 1
  16    8   13 1
  17    9   10 1
  18    9   25 1
  19    9   26 1
  20   11   12 1
  21   11   24 1
  22   12   13 2
  23   13   14 1
  24   14   15 am
  25   14   23 2
  26   15   16 1
  27   15   31 1
  28   16   17 ar
  29   16   21 ar
  30   17   18 ar
  31   17   32 1
  32   18   19 ar
  33   18   22 1
  34   19   20 ar
  35   19   33 1
  36   20   21 ar
  37   20   34 1
  38   21   35 1
  39   24   36 1
  40   24   37 1
  41   24   38 1
  42   25   39 1
  43   25   40 1
  44   25   41 1
  45   26   42 1
  46   26   43 1
  47   26   44 1

#	End of record

