#	Name: ASD01940079
#	Creating user name:	WinNT
#	Creation time:	15. 06. 2019 20:11

#	Modifying user name:	WinNT
#	Modification time:	15. 06. 2019 20:11

#	Program:	/corina/corina34_cracker 3.40 0067  02.08.2006

@<TRIPOS>MOLECULE
ASD01940079
  32   33    0    0    0
SMALL
NO_CHARGES


@<TRIPOS>ATOM
   1 I1             2.7353    -4.3167    -2.4023 I       
   2 F2             1.8575     1.4500     2.1396 F       
   3 C3             1.0201     2.0879     1.2928 C.ar    
   4 C4             1.3460     2.2021    -0.0521 C.ar    
   5 C5             0.4786     2.8608    -0.9220 C.ar    
   6 C6            -0.7055     3.3989    -0.4407 C.ar    
   7 C7            -1.0247     3.2825     0.8997 C.ar    
   8 C8            -0.1676     2.6238     1.7646 C.ar    
   9 N9             2.5442     1.6569    -0.5336 N.pl3   
  10 N10            0.8026     2.9794    -2.2802 N.am    
  11 C11            2.5875     0.3230    -0.9509 C.ar    
  12 C12            1.4330    -0.4477    -0.9385 C.ar    
  13 C13            1.4786    -1.7655    -1.3519 C.ar    
  14 C14            2.6727    -2.3180    -1.7775 C.ar    
  15 C15            3.8264    -1.5540    -1.7913 C.ar    
  16 C16            3.7868    -0.2333    -1.3850 C.ar    
  17 F17            4.9131     0.5128    -1.3984 F       
  18 F18           -0.4872     2.5077     3.0721 F       
  19 S19            0.3886     4.3492    -3.1136 S.o2    
  20 O20            0.9486     4.1562    -4.4053 O.2     
  21 O21           -1.0168     4.4578    -2.9332 O.2     
  22 C22            1.2477     5.6873    -2.2407 C.3     
  23 F23            2.6268     5.4540    -2.2715 F       
  24 F24            0.9670     6.9072    -2.8654 F       
  25 F25            0.8119     5.7325    -0.9121 F       
  26 H26           -1.3788     3.9095    -1.1133 H       
  27 H27           -1.9473     3.7027     1.2720 H       
  28 H28            3.3434     2.2050    -0.5773 H       
  29 H29            1.2695     2.2592    -2.7321 H       
  30 H30            0.4998    -0.0178    -0.6057 H       
  31 H31            0.5803    -2.3649    -1.3422 H       
  32 H32            4.7575    -1.9885    -2.1239 H       
@<TRIPOS>BOND
   1    1   14 1
   2    2    3 1
   3    3    4 ar
   4    3    8 ar
   5    4    5 ar
   6    4    9 1
   7    5    6 ar
   8    5   10 1
   9    6    7 ar
  10    6   26 1
  11    7    8 ar
  12    7   27 1
  13    8   18 1
  14    9   11 1
  15    9   28 1
  16   10   19 am
  17   10   29 1
  18   11   12 ar
  19   11   16 ar
  20   12   13 ar
  21   12   30 1
  22   13   14 ar
  23   13   31 1
  24   14   15 ar
  25   15   16 ar
  26   15   32 1
  27   16   17 1
  28   19   20 2
  29   19   21 2
  30   19   22 1
  31   22   23 1
  32   22   24 1
  33   22   25 1

#	End of record

