#	Name: ASD01410143
#	Creating user name:	WinNT
#	Creation time:	15. 06. 2019 19:16

#	Modifying user name:	WinNT
#	Modification time:	15. 06. 2019 19:16

#	Program:	/corina/corina34_cracker 3.40 0067  02.08.2006

@<TRIPOS>MOLECULE
ASD01410143
  72   77    0    0    0
SMALL
NO_CHARGES


@<TRIPOS>ATOM
   1 C1             0.0050     1.4329     0.0027 C.ar    
   2 C2             0.0092     0.0624     0.3239 C.ar    
   3 C3            -1.1711    -0.5713     0.6947 C.ar    
   4 C4            -2.3397     0.1319     0.7488 C.ar    
   5 C5            -2.3628     1.4965     0.4320 C.ar    
   6 C6            -1.1903     2.1494     0.0640 C.ar    
   7 N7             1.2790     1.7738    -0.3166 N.2     
   8 C8             2.0534     0.7209    -0.2145 C.2     
   9 N9             1.3137    -0.3625     0.1789 N.pl3   
  10 C10           -3.6342     2.2452     0.4936 C.2     
  11 N11           -4.7701     1.6157     0.8542 N.am    
  12 C12           -6.0313     2.3585     0.9153 C.3     
  13 C13            3.5060     0.7053    -0.4839 C.2     
  14 C14            4.3417    -0.4670    -0.7760 C.2     
  15 C15            5.5878     0.0013    -0.9512 C.2     
  16 O16            5.5817     1.3338    -0.7935 O.3     
  17 C17            4.3476     1.7752    -0.5190 C.2     
  18 C18            1.8147    -1.7206     0.4040 C.3     
  19 C19            1.4174    -2.1848     1.8067 C.3     
  20 C20            1.9407    -3.6032     2.0418 C.3     
  21 C21            1.3365    -4.5486     1.0015 C.3     
  22 C22            1.7338    -4.0844    -0.4012 C.3     
  23 C23            1.2105    -2.6660    -0.6363 C.3     
  24 O24           -3.6562     3.4293     0.2191 O.2     
  25 C25           -6.6680     2.3978    -0.4754 C.3     
  26 C26           -6.9694     1.6771     1.8781 C.2     
  27 C27           -5.7861     3.1859    -1.4094 C.ar    
  28 C28           -4.7985     2.5431    -2.1328 C.ar    
  29 C29           -3.9888     3.2633    -2.9896 C.ar    
  30 C30           -4.1673     4.6325    -3.1240 C.ar    
  31 C31           -5.1589     5.2750    -2.3971 C.ar    
  32 C32           -5.9697     4.5495    -1.5458 C.ar    
  33 O33           -3.3718     5.3432    -3.9660 O.3     
  34 C34           -6.6075     0.6252     2.6151 C.2     
  35 S35           -7.9903     0.1427     3.5943 S.3     
  36 C36           -8.9235     1.4048     2.9166 C.2     
  37 N37           -8.2136     2.0760     2.0646 N.2     
  38 N38          -10.2489     1.6752     3.2367 N.am    
  39 C39          -10.8917     0.9141     4.1445 C.2     
  40 C40          -12.3286     1.2073     4.4915 C.3     
  41 O41          -10.3137    -0.0067     4.6821 O.2     
  42 H42           -1.1635    -1.6230     0.9404 H       
  43 H43           -3.2529    -0.3672     1.0374 H       
  44 H44           -1.2071     3.2013    -0.1800 H       
  45 H45           -4.7525     0.6710     1.0732 H       
  46 H46           -5.8378     3.3759     1.2552 H       
  47 H47            4.0194    -1.4960    -0.8374 H       
  48 H48            6.4560    -0.5984    -1.1817 H       
  49 H49            4.0683     2.8043    -0.3477 H       
  50 H50            2.9009    -1.7269     0.3132 H       
  51 H51            1.8479    -1.5113     2.5478 H       
  52 H52            0.3312    -2.1786     1.8975 H       
  53 H53            3.0269    -3.6095     1.9510 H       
  54 H54            1.6577    -3.9339     3.0411 H       
  55 H55            1.7093    -5.5591     1.1690 H       
  56 H56            0.2503    -4.5424     1.0923 H       
  57 H57            2.8200    -4.0907    -0.4920 H       
  58 H58            1.3034    -4.7580    -1.1423 H       
  59 H59            0.1243    -2.6598    -0.5455 H       
  60 H60            1.4935    -2.3353    -1.6356 H       
  61 H61           -6.7800     1.3813    -0.8526 H       
  62 H62           -7.6473     2.8724    -0.4134 H       
  63 H63           -4.6597     1.4773    -2.0276 H       
  64 H64           -3.2173     2.7608    -3.5542 H       
  65 H65           -5.2999     6.3408    -2.5000 H       
  66 H66           -6.7418     5.0492    -0.9797 H       
  67 H67           -3.7139     5.4097    -4.8680 H       
  68 H68           -5.6367     0.1521     2.6117 H       
  69 H69          -10.7111     2.4117     2.8068 H       
  70 H70          -12.6748     2.0635     3.9126 H       
  71 H71          -12.9434     0.3381     4.2578 H       
  72 H72          -12.4068     1.4323     5.5552 H       
@<TRIPOS>BOND
   1    1    2 ar
   2    1    7 1
   3    1    6 ar
   4    2    3 ar
   5    2    9 1
   6    3    4 ar
   7    3   42 1
   8    4    5 ar
   9    4   43 1
  10    5    6 ar
  11    5   10 1
  12    6   44 1
  13    7    8 2
  14    8    9 1
  15    8   13 1
  16    9   18 1
  17   10   11 am
  18   10   24 2
  19   11   12 1
  20   11   45 1
  21   12   25 1
  22   12   26 1
  23   12   46 1
  24   13   14 1
  25   13   17 2
  26   14   15 2
  27   14   47 1
  28   15   16 1
  29   15   48 1
  30   16   17 1
  31   17   49 1
  32   18   19 1
  33   18   23 1
  34   18   50 1
  35   19   20 1
  36   19   51 1
  37   19   52 1
  38   20   21 1
  39   20   53 1
  40   20   54 1
  41   21   22 1
  42   21   55 1
  43   21   56 1
  44   22   23 1
  45   22   57 1
  46   22   58 1
  47   23   59 1
  48   23   60 1
  49   25   27 1
  50   25   61 1
  51   25   62 1
  52   26   34 2
  53   26   37 1
  54   27   28 ar
  55   27   32 ar
  56   28   29 ar
  57   28   63 1
  58   29   30 ar
  59   29   64 1
  60   30   31 ar
  61   30   33 1
  62   31   32 ar
  63   31   65 1
  64   32   66 1
  65   33   67 1
  66   34   35 1
  67   34   68 1
  68   35   36 1
  69   36   37 2
  70   36   38 1
  71   38   39 am
  72   38   69 1
  73   39   40 1
  74   39   41 2
  75   40   70 1
  76   40   71 1
  77   40   72 1

#	End of record

