#	Name: ASD08780010
#	Creating user name:	WinNT
#	Creation time:	15. 06. 2019 21:19

#	Modifying user name:	WinNT
#	Modification time:	15. 06. 2019 21:19

#	Program:	/corina/corina34_cracker 3.40 0067  02.08.2006

@<TRIPOS>MOLECULE
ASD08780010
  37   39    0    0    0
SMALL
NO_CHARGES


@<TRIPOS>ATOM
   1 N1             0.0817     1.1480     0.4098 N.am    
   2 C2            -0.1209    -0.1633     0.1737 C.2     
   3 S3             1.1920    -1.2595     0.2491 S.2     
   4 N4            -1.3570    -0.6117    -0.1218 N.am    
   5 C5            -4.3570    -3.3964     1.1848 C.2     
   6 N6            -3.6021    -2.3571     0.9794 N.2     
   7 C7            -2.6165    -2.6754     0.1016 C.ar    
   8 C8            -2.7980    -4.0226    -0.2484 C.ar    
   9 N9            -3.9071    -4.4522     0.4527 N.pl3   
  10 C10           -1.5515    -1.9546    -0.4590 C.ar    
  11 C11           -0.6952    -2.5795    -1.3473 C.ar    
  12 C12           -0.8836    -3.9107    -1.6861 C.ar    
  13 C13           -1.9266    -4.6308    -1.1429 C.ar    
  14 C14           -4.4914    -5.7951     0.4157 C.3     
  15 C15            2.0535     0.9069     1.7920 C.ar    
  16 C16            1.3421     1.5987     0.8246 C.ar    
  17 C17            1.9016     2.7530     0.2686 C.ar    
  18 C18            3.1552     3.1577     0.7143 C.ar    
  19 C19            3.7984     2.4120     1.6821 C.ar    
  20 N20            3.2407     1.3273     2.1853 N.ar    
  21 O21            1.2382     3.4604    -0.6824 O.3     
  22 C22            1.8867     4.6267    -1.1938 C.3     
  23 H23           -0.6438     1.7804     0.2889 H       
  24 H24           -2.1118    -0.0028    -0.1006 H       
  25 H25           -5.2127    -3.4195     1.8433 H       
  26 H26            0.1254    -2.0268    -1.7802 H       
  27 H27           -0.2084    -4.3874    -2.3812 H       
  28 H28           -2.0652    -5.6675    -1.4120 H       
  29 H29           -5.2400    -5.8440    -0.3750 H       
  30 H30           -3.7078    -6.5270     0.2199 H       
  31 H31           -4.9611    -6.0135     1.3748 H       
  32 H32            1.6296     0.0164     2.2320 H       
  33 H33            3.6200     4.0440     0.3082 H       
  34 H34            4.7723     2.7209     2.0321 H       
  35 H35            2.8366     4.3446    -1.6479 H       
  36 H36            1.2506     5.0966    -1.9439 H       
  37 H37            2.0674     5.3284    -0.3795 H       
@<TRIPOS>BOND
   1    1    2 am
   2    1   16 1
   3    1   23 1
   4    2    3 2
   5    2    4 am
   6    4   10 1
   7    4   24 1
   8    5    6 2
   9    5    9 1
  10    5   25 1
  11    6    7 1
  12    7    8 ar
  13    7   10 ar
  14    8    9 1
  15    8   13 ar
  16    9   14 1
  17   10   11 ar
  18   11   12 ar
  19   11   26 1
  20   12   13 ar
  21   12   27 1
  22   13   28 1
  23   14   29 1
  24   14   30 1
  25   14   31 1
  26   15   16 ar
  27   15   20 ar
  28   15   32 1
  29   16   17 ar
  30   17   18 ar
  31   17   21 1
  32   18   19 ar
  33   18   33 1
  34   19   20 ar
  35   19   34 1
  36   21   22 1
  37   22   35 1
  38   22   36 1
  39   22   37 1

#	End of record

