#	Name: ASD03091571
#	Creating user name:	WinNT
#	Creation time:	15. 06. 2019 20:31

#	Modifying user name:	WinNT
#	Modification time:	15. 06. 2019 20:31

#	Program:	/corina/corina34_cracker 3.40 0067  02.08.2006

@<TRIPOS>MOLECULE
ASD03091571
  41   43    0    0    0
SMALL
NO_CHARGES


@<TRIPOS>ATOM
   1 C1             0.0348     1.2324    -0.2081 C.2     
   2 C2            -0.0590    -0.0921     0.0326 C.2     
   3 N3            -1.2850    -0.5184     0.2455 N.2     
   4 C4            -2.2348     0.3668     0.1993 C.2     
   5 S5            -1.5882     1.9136    -0.1347 S.3     
   6 N6            -3.5767     0.0972     0.3982 N.3     
   7 C7            -3.7923    -1.3311     0.6713 C.3     
   8 C8            -4.3782     0.5340    -0.7543 C.3     
   9 C9            -5.8591     0.2720    -0.4677 C.3     
  10 O10           -6.0445    -1.1153    -0.1739 O.3     
  11 C11           -5.2791    -1.5744     0.9435 C.3     
  12 C12            1.2785     1.9796    -0.4788 C.ar    
  13 C13            1.3621     2.8737    -1.5545 C.ar    
  14 C14            2.4071     1.8193     0.3363 C.ar    
  15 C15            3.5471     2.5374     0.0471 C.ar    
  16 N16            3.5843     3.3662    -0.9798 N.ar    
  17 C17            2.5429     3.5507    -1.7700 C.ar    
  18 C18            1.1394    -1.0056     0.0555 C.3     
  19 N19            1.6047    -1.1683     1.4394 N.3     
  20 C20            2.6486     4.5107    -2.9268 C.3     
  21 C21            4.7681     2.3747     0.9153 C.3     
  22 H22           -3.4796    -1.9181    -0.1923 H       
  23 H23           -3.2094    -1.6269     1.5435 H       
  24 H24           -4.2230     1.5997    -0.9226 H       
  25 H25           -4.0749    -0.0231    -1.6407 H       
  26 H26           -6.1760     0.8705     0.3864 H       
  27 H27           -6.4521     0.5414    -1.3417 H       
  28 H28           -5.4526    -2.6405     1.0902 H       
  29 H29           -5.5791    -1.0296     1.8387 H       
  30 H30            0.5141     3.0296    -2.2050 H       
  31 H31            2.3837     1.1436     1.1785 H       
  32 H32            0.8628    -1.9781    -0.3515 H       
  33 H33            1.9376    -0.5729    -0.5477 H       
  34 H34            0.8626    -1.5075     2.0328 H       
  35 H35            2.4083    -1.7770     1.4814 H       
  36 H36            2.9978     3.9773    -3.8109 H       
  37 H37            1.6698     4.9462    -3.1282 H       
  38 H38            3.3546     5.3030    -2.6781 H       
  39 H39            5.3903     1.5716     0.5204 H       
  40 H40            5.3361     3.3050     0.9214 H       
  41 H41            4.4609     2.1299     1.9320 H       
@<TRIPOS>BOND
   1    1    2 2
   2    1   12 1
   3    1    5 1
   4    2    3 1
   5    2   18 1
   6    3    4 2
   7    4    5 1
   8    4    6 1
   9    6    7 1
  10    6    8 1
  11    7   11 1
  12    7   22 1
  13    7   23 1
  14    8    9 1
  15    8   24 1
  16    8   25 1
  17    9   10 1
  18    9   26 1
  19    9   27 1
  20   10   11 1
  21   11   28 1
  22   11   29 1
  23   12   13 ar
  24   12   14 ar
  25   13   17 ar
  26   13   30 1
  27   14   15 ar
  28   14   31 1
  29   15   16 ar
  30   15   21 1
  31   16   17 ar
  32   17   20 1
  33   18   19 1
  34   18   32 1
  35   18   33 1
  36   19   34 1
  37   19   35 1
  38   20   36 1
  39   20   37 1
  40   20   38 1
  41   21   39 1
  42   21   40 1
  43   21   41 1

#	End of record

