#	Name: ASD01915322
#	Creating user name:	WinNT
#	Creation time:	15. 06. 2019 20:05

#	Modifying user name:	WinNT
#	Modification time:	15. 06. 2019 20:05

#	Program:	/corina/corina34_cracker 3.40 0067  02.08.2006

@<TRIPOS>MOLECULE
ASD01915322
  45   48    0    0    0
SMALL
NO_CHARGES


@<TRIPOS>ATOM
   1 N1             0.0552     1.3619     0.2921 N.2     
   2 N2             0.0654    -0.0342     0.1372 N.pl3   
   3 N3             1.2523    -0.3612    -0.2471 N.2     
   4 N4             1.9780     0.6957    -0.3455 N.2     
   5 C5             1.2637     1.7686    -0.0188 C.2     
   6 C6             1.7530     3.1939    -0.0084 C.3     
   7 C7            -1.0104    -0.9067     0.3589 C.ar    
   8 C8            -0.8490    -2.2686     0.1633 C.ar    
   9 C9            -1.9221    -3.1327     0.3856 C.ar    
  10 C10           -3.1511    -2.6183     0.8037 C.ar    
  11 C11           -3.3008    -1.2599     0.9955 C.ar    
  12 C12           -2.2360    -0.4053     0.7802 C.ar    
  13 N13            2.7544     3.3631     1.0533 N.am    
  14 C14            3.4740     4.6406     1.1487 C.3     
  15 C15            4.1042     4.9542    -0.2119 C.3     
  16 C16            3.0199     4.9227    -1.2914 C.3     
  17 C17            2.4026     3.5238    -1.3560 C.3     
  18 C18            3.0079     2.3656     1.9235 C.2     
  19 O19            2.3360     1.3562     1.9013 O.2     
  20 C20            4.1262     2.5045     2.9240 C.3     
  21 C21            4.2857     1.2821     3.8434 C.3     
  22 C22            5.8051     1.4674     3.6953 C.3     
  23 C23            5.5109     2.1567     2.3525 C.3     
  24 C24           -1.7636    -4.5417     0.1852 C.1     
  25 N25           -1.6378    -5.6595     0.0262 N.1     
  26 H26            0.9143     3.8668     0.1698 H       
  27 H27            0.1039    -2.6604    -0.1605 H       
  28 H28           -3.9844    -3.2833     0.9765 H       
  29 H29           -4.2520    -0.8636     1.3189 H       
  30 H30           -2.3592     0.6568     0.9323 H       
  31 H31            2.7767     5.4333     1.4199 H       
  32 H32            4.2556     4.5642     1.9046 H       
  33 H33            4.5595     5.9441    -0.1824 H       
  34 H34            4.8666     4.2093    -0.4401 H       
  35 H35            2.2454     5.6505    -1.0495 H       
  36 H36            3.4613     5.1697    -2.2569 H       
  37 H37            3.1809     2.7923    -1.5734 H       
  38 H38            1.6467     3.4956    -2.1408 H       
  39 H39            4.0993     3.4533     3.4599 H       
  40 H40            3.9223     1.4482     4.8575 H       
  41 H41            3.9141     0.3554     3.4060 H       
  42 H42            6.2386     2.1328     4.4419 H       
  43 H43            6.3515     0.5297     3.5943 H       
  44 H44            5.4743     1.4691     1.5075 H       
  45 H45            6.1367     3.0288     2.1630 H       
@<TRIPOS>BOND
   1    1    2 1
   2    1    5 2
   3    2    3 1
   4    2    7 1
   5    3    4 2
   6    4    5 1
   7    5    6 1
   8    6   13 1
   9    6   17 1
  10    6   26 1
  11    7    8 ar
  12    7   12 ar
  13    8    9 ar
  14    8   27 1
  15    9   10 ar
  16    9   24 1
  17   10   11 ar
  18   10   28 1
  19   11   12 ar
  20   11   29 1
  21   12   30 1
  22   13   14 1
  23   13   18 am
  24   14   15 1
  25   14   31 1
  26   14   32 1
  27   15   16 1
  28   15   33 1
  29   15   34 1
  30   16   17 1
  31   16   35 1
  32   16   36 1
  33   17   37 1
  34   17   38 1
  35   18   19 2
  36   18   20 1
  37   20   21 1
  38   20   23 1
  39   20   39 1
  40   21   22 1
  41   21   40 1
  42   21   41 1
  43   22   23 1
  44   22   42 1
  45   22   43 1
  46   23   44 1
  47   23   45 1
  48   24   25 3

#	End of record

