#	Name: ASD01900667
#	Creating user name:	WinNT
#	Creation time:	15. 06. 2019 19:52

#	Modifying user name:	WinNT
#	Modification time:	15. 06. 2019 19:52

#	Program:	/corina/corina34_cracker 3.40 0067  02.08.2006

@<TRIPOS>MOLECULE
ASD01900667
  54   59    0    0    0
SMALL
NO_CHARGES


@<TRIPOS>ATOM
   1 C1            -0.0185     1.4147     0.1358 C.ar    
   2 C2            -0.0084     0.0183     0.1247 C.ar    
   3 C3             1.1960    -0.6774     0.0643 C.ar    
   4 C4             2.3940     0.0180     0.0145 C.ar    
   5 C5             2.3730     1.4207     0.0304 C.ar    
   6 O6             3.5685    -0.6448    -0.0561 O.3     
   7 C7             4.7407    -0.0349     0.1907 C.2     
   8 C8             4.8741     1.3119     0.2210 C.2     
   9 C9             3.6729     2.1368    -0.0105 C.2     
  10 C10            5.9334    -0.8693     0.4387 C.ar    
  11 N11            7.1057    -0.2776     0.6854 N.ar    
  12 C12            8.2039    -0.9533     0.9139 C.ar    
  13 C13            8.1851    -2.3591     0.9069 C.ar    
  14 C14            6.9585    -3.0271     0.6487 C.ar    
  15 C15            5.8122    -2.2499     0.4161 C.ar    
  16 C16            9.3415    -3.1165     1.1468 C.ar    
  17 C17            9.2702    -4.4769     1.1285 C.ar    
  18 C18            8.0663    -5.1314     0.8752 C.ar    
  19 C19            6.9229    -4.4299     0.6378 C.ar    
  20 C20            1.1688     2.1127     0.0887 C.ar    
  21 C21           -1.2882    -0.7279     0.1782 C.ar    
  22 C22           -2.4975    -0.0353     0.2393 C.ar    
  23 C23           -1.2835    -2.1227     0.1617 C.ar    
  24 C24           -2.4727    -2.8159     0.2114 C.ar    
  25 C25           -3.6813    -2.1234     0.2782 C.ar    
  26 C26           -3.6864    -0.7288     0.2890 C.ar    
  27 C27           -4.9617    -2.8700     0.3313 C.ar    
  28 C28           -6.1712    -2.1805     0.3981 C.ar    
  29 C29           -4.9603    -4.2636     0.3087 C.ar    
  30 C30           -6.1547    -4.9531     0.3583 C.ar    
  31 C31           -7.3518    -4.2637     0.4304 C.ar    
  32 C32           -7.3596    -2.8805     0.4473 C.ar    
  33 N33            3.7489     3.4256    -0.2391 N.2     
  34 O34            2.5877     4.1500    -0.6022 O.3     
  35 H35           -0.9569     1.9477     0.1767 H       
  36 H36            1.1969    -1.7574     0.0567 H       
  37 H37            5.8337     1.7701     0.4096 H       
  38 H38            9.1278    -0.4287     1.1080 H       
  39 H39            4.8594    -2.7174     0.2159 H       
  40 H40           10.2822    -2.6242     1.3444 H       
  41 H41           10.1617    -5.0578     1.3132 H       
  42 H42            8.0394    -6.2111     0.8666 H       
  43 H43            5.9963    -4.9493     0.4427 H       
  44 H44            1.1637     3.1926     0.0967 H       
  45 H45           -2.5014     1.0446     0.2479 H       
  46 H46           -0.3475    -2.6590     0.1095 H       
  47 H47           -2.4691    -3.8958     0.1982 H       
  48 H48           -4.6225    -0.1927     0.3411 H       
  49 H49           -6.1784    -1.1006     0.4118 H       
  50 H50           -4.0262    -4.8029     0.2521 H       
  51 H51           -6.1549    -6.0329     0.3405 H       
  52 H52           -8.2842    -4.8074     0.4690 H       
  53 H53           -8.2971    -2.3474     0.5040 H       
  54 H54            2.7425     5.0930    -0.7502 H       
@<TRIPOS>BOND
   1    1    2 ar
   2    1   20 ar
   3    1   35 1
   4    2    3 ar
   5    2   21 1
   6    3    4 ar
   7    3   36 1
   8    4    5 ar
   9    4    6 1
  10    5   20 ar
  11    5    9 1
  12    6    7 1
  13    7    8 2
  14    7   10 1
  15    8    9 1
  16    8   37 1
  17    9   33 2
  18   10   11 ar
  19   10   15 ar
  20   11   12 ar
  21   12   13 ar
  22   12   38 1
  23   13   14 ar
  24   13   16 ar
  25   14   15 ar
  26   14   19 ar
  27   15   39 1
  28   16   17 ar
  29   16   40 1
  30   17   18 ar
  31   17   41 1
  32   18   19 ar
  33   18   42 1
  34   19   43 1
  35   20   44 1
  36   21   22 ar
  37   21   23 ar
  38   22   26 ar
  39   22   45 1
  40   23   24 ar
  41   23   46 1
  42   24   25 ar
  43   24   47 1
  44   25   26 ar
  45   25   27 1
  46   26   48 1
  47   27   28 ar
  48   27   29 ar
  49   28   32 ar
  50   28   49 1
  51   29   30 ar
  52   29   50 1
  53   30   31 ar
  54   30   51 1
  55   31   32 ar
  56   31   52 1
  57   32   53 1
  58   33   34 1
  59   34   54 1

#	End of record

