#	Name: ASD01140275
#	Creating user name:	WinNT
#	Creation time:	15. 06. 2019 19:00

#	Modifying user name:	WinNT
#	Modification time:	15. 06. 2019 19:00

#	Program:	/corina/corina34_cracker 3.40 0067  02.08.2006

@<TRIPOS>MOLECULE
ASD01140275
  51   54    0    0    0
SMALL
NO_CHARGES


@<TRIPOS>ATOM
   1 C1            -0.0207     1.5261     0.0120 C.3     
   2 C2            -0.0006    -0.0036     0.0039 C.3     
   3 C3             0.7155    -0.4978    -1.2547 C.3     
   4 C4             2.1513     0.0308    -1.2639 C.3     
   5 C5             2.1316     1.5602    -1.2567 C.3     
   6 C6             1.4146     2.0566     0.0007 C.3     
   7 C7             3.5662     2.0906    -1.2699 C.3     
   8 C8             3.5456     3.6204    -1.2651 C.3     
   9 C9             2.8331     4.1161    -0.0060 C.3     
  10 C10            1.3913     3.5855     0.0013 C.3     
  11 C11            0.6444     5.6316     1.2875 C.3     
  12 C12            0.6135     4.0956     1.2098 C.3     
  13 C13            2.0997     6.0523     1.3359 C.3     
  14 C14            2.3788     7.5242     1.4176 C.2     
  15 C15            2.7534     5.6319    -0.0085 C.3     
  16 C16            4.0958     6.3694     0.0706 C.3     
  17 C17            3.6895     7.7441     0.6687 C.3     
  18 O18            1.7036     8.3633     1.9638 O.2     
  19 O19            0.0257    -0.0235    -2.4128 O.3     
  20 C20            2.1544     1.5546     1.2423 C.3     
  21 C21            2.8025     5.3404     2.4936 C.3     
  22 H22            3.3712     3.7770     0.8792 H       
  23 H23            1.6035     1.9203    -2.1396 H       
  24 H24            0.8848     3.9300    -0.9003 H       
  25 H25            2.1576     5.9815    -0.8517 H       
  26 H26           -0.5483     1.8870    -0.8709 H       
  27 H27           -0.5309     1.8778     0.9087 H       
  28 H28            0.5263    -0.3646     0.8872 H       
  29 H29           -1.0233    -0.3804     0.0117 H       
  30 H30            0.7294    -1.5877    -1.2607 H       
  31 H31            2.6769    -0.3299    -0.3798 H       
  32 H32            2.6625    -0.3218    -2.1596 H       
  33 H33            4.0943     1.7317    -0.3865 H       
  34 H34            4.0759     1.7371    -2.1662 H       
  35 H35            4.5681     3.9977    -1.2764 H       
  36 H36            3.0159     3.9795    -2.1475 H       
  37 H37            0.1646     6.0571     0.4061 H       
  38 H38            0.1312     5.9676     2.1885 H       
  39 H39           -0.4218     3.7629     1.1342 H       
  40 H40            1.0541     3.6835     2.1176 H       
  41 H41            4.7857     5.8474     0.7337 H       
  42 H42            4.5292     6.4919    -0.9220 H       
  43 H43            3.5453     8.4710    -0.1306 H       
  44 H44            4.4588     8.0936     1.3574 H       
  45 H45           -0.8929    -0.3198    -2.4723 H       
  46 H46            2.1701     0.4647     1.2399 H       
  47 H47            3.1767     1.9327     1.2337 H       
  48 H48            1.6435     1.9086     2.1376 H       
  49 H49            2.6665     4.2635     2.3941 H       
  50 H50            3.8666     5.5757     2.4725 H       
  51 H51            2.3751     5.6748     3.4389 H       
@<TRIPOS>BOND
   1    1    2 1
   2    1    6 1
   3    1   26 1
   4    1   27 1
   5    2    3 1
   6    2   28 1
   7    2   29 1
   8    3    4 1
   9    3   19 1
  10    3   30 1
  11    4    5 1
  12    4   31 1
  13    4   32 1
  14    5    7 1
  15    5    6 1
  16    5   23 1
  17    6   10 1
  18    6   20 1
  19    7    8 1
  20    7   33 1
  21    7   34 1
  22    8    9 1
  23    8   35 1
  24    8   36 1
  25    9   15 1
  26    9   22 1
  27    9   10 1
  28   10   24 1
  29   10   12 1
  30   11   12 1
  31   11   13 1
  32   11   37 1
  33   11   38 1
  34   12   39 1
  35   12   40 1
  36   13   15 1
  37   13   21 1
  38   13   14 1
  39   14   17 1
  40   14   18 2
  41   15   16 1
  42   15   25 1
  43   16   17 1
  44   16   41 1
  45   16   42 1
  46   17   43 1
  47   17   44 1
  48   19   45 1
  49   20   46 1
  50   20   47 1
  51   20   48 1
  52   21   49 1
  53   21   50 1
  54   21   51 1

#	End of record

