#	Name: ASD06020087
#	Creating user name:	WinNT
#	Creation time:	15. 06. 2019 21:04

#	Modifying user name:	WinNT
#	Modification time:	15. 06. 2019 21:04

#	Program:	/corina/corina34_cracker 3.40 0067  02.08.2006

@<TRIPOS>MOLECULE
ASD06020087
  40   43    0    0    0
SMALL
NO_CHARGES


@<TRIPOS>ATOM
   1 C1            -0.1026     1.2147    -0.0149 C.ar    
   2 C2             0.9882     2.0933    -0.0055 C.ar    
   3 C3             2.2598     1.5495    -0.0118 C.ar    
   4 C4             2.3784     0.1588    -0.0272 C.ar    
   5 N5             1.2872    -0.5991    -0.0353 N.ar    
   6 N6             0.1062    -0.0964    -0.0294 N.ar    
   7 C7            -1.4825     1.7457    -0.0025 C.2     
   8 O8            -1.6716     2.9463     0.0158 O.2     
   9 N9            -2.5307     0.8985    -0.0116 N.am    
  10 C10           -3.8979     1.4246     0.0006 C.3     
  11 N11            3.6332    -0.4309    -0.0345 N.pl3   
  12 C12            3.7526    -1.8142     0.0625 C.ar    
  13 C13            5.0105    -2.4140    -0.0578 C.ar    
  14 C14            5.1239    -3.8055     0.0406 C.ar    
  15 C15            3.9285    -4.5360     0.2612 C.ar    
  16 C16            2.7469    -3.8724     0.3660 C.ar    
  17 N17            2.6775    -2.5537     0.2731 N.ar    
  18 S18            6.6160    -1.7450    -0.3280 S.3     
  19 C19            7.3068    -3.3622    -0.2887 C.2     
  20 N20            6.3778    -4.2402    -0.0922 N.2     
  21 C21            8.7421    -3.6730    -0.4569 C.ar    
  22 C22            9.1838    -4.9971    -0.4080 C.ar    
  23 C23           10.5262    -5.2800    -0.5665 C.ar    
  24 C24           11.4326    -4.2557    -0.7734 C.ar    
  25 C25           11.0024    -2.9419    -0.8230 C.ar    
  26 C26            9.6623    -2.6445    -0.6714 C.ar    
  27 Cl27           9.1236    -0.9956    -0.7413 Cl      
  28 Cl28           8.0481    -6.2841    -0.1479 Cl      
  29 H29            0.8407     3.1632     0.0060 H       
  30 H30            3.1351     2.1822    -0.0054 H       
  31 H31           -2.3798    -0.0596    -0.0263 H       
  32 H32           -4.6061     0.5961    -0.0093 H       
  33 H33           -4.0495     2.0215     0.9000 H       
  34 H34           -4.0553     2.0477    -0.8798 H       
  35 H35            4.4278     0.1206    -0.1072 H       
  36 H36            3.9567    -5.6124     0.3450 H       
  37 H37            1.8410    -4.4357     0.5340 H       
  38 H38           10.8692    -6.3033    -0.5285 H       
  39 H39           12.4812    -4.4828    -0.8963 H       
  40 H40           11.7156    -2.1473    -0.9849 H       
@<TRIPOS>BOND
   1    1    2 ar
   2    1    6 ar
   3    1    7 1
   4    2    3 ar
   5    2   29 1
   6    3    4 ar
   7    3   30 1
   8    4    5 ar
   9    4   11 1
  10    5    6 ar
  11    7    8 2
  12    7    9 am
  13    9   10 1
  14    9   31 1
  15   10   32 1
  16   10   33 1
  17   10   34 1
  18   11   12 1
  19   11   35 1
  20   12   13 ar
  21   12   17 ar
  22   13   14 ar
  23   13   18 1
  24   14   15 ar
  25   14   20 1
  26   15   16 ar
  27   15   36 1
  28   16   17 ar
  29   16   37 1
  30   18   19 1
  31   19   20 2
  32   19   21 1
  33   21   22 ar
  34   21   26 ar
  35   22   23 ar
  36   22   28 1
  37   23   24 ar
  38   23   38 1
  39   24   25 ar
  40   24   39 1
  41   25   26 ar
  42   25   40 1
  43   26   27 1

#	End of record

