#	Name: ASD04910099
#	Creating user name:	WinNT
#	Creation time:	15. 06. 2019 20:55

#	Modifying user name:	WinNT
#	Modification time:	15. 06. 2019 20:55

#	Program:	/corina/corina34_cracker 3.40 0067  02.08.2006

@<TRIPOS>MOLECULE
ASD04910099
  13   13    0    0    0
SMALL
NO_CHARGES


@<TRIPOS>ATOM
   1 N1            -0.0169     1.3966     0.0097 N.pl3   
   2 N2             0.0021    -0.0041     0.0020 N.2     
   3 C3             1.2498    -0.3985    -0.0120 C.2     
   4 C4             2.0714     0.7365    -0.0138 C.2     
   5 C5             1.2706     1.8305    -0.0002 C.2     
   6 O6             3.4336     0.7401    -0.0268 O.3     
   7 C7             4.0857    -0.5314    -0.0404 C.3     
   8 H8            -0.8086     1.9571     0.0167 H       
   9 H9             1.5885    -1.4240    -0.0204 H       
  10 H10            1.5970     2.8600     0.0019 H       
  11 H11            3.7858    -1.0840    -0.9307 H       
  12 H12            5.1659    -0.3857    -0.0498 H       
  13 H13            3.8028    -1.0943     0.8491 H       
@<TRIPOS>BOND
   1    1    2 1
   2    1    5 1
   3    1    8 1
   4    2    3 2
   5    3    4 1
   6    3    9 1
   7    4    5 2
   8    4    6 1
   9    5   10 1
  10    6    7 1
  11    7   11 1
  12    7   12 1
  13    7   13 1

#	End of record

