#	Name: ASD02030654
#	Creating user name:	WinNT
#	Creation time:	15. 06. 2019 20:15

#	Modifying user name:	WinNT
#	Modification time:	15. 06. 2019 20:15

#	Program:	/corina/corina34_cracker 3.40 0067  02.08.2006

@<TRIPOS>MOLECULE
ASD02030654
  40   42    0    0    0
SMALL
NO_CHARGES


@<TRIPOS>ATOM
   1 C1            -0.0192     1.3090     0.5020 C.2     
   2 N2            -0.0023    -0.0347     0.2599 N.am    
   3 N3             2.3390    -0.0102     0.4503 N.2     
   4 C4             2.3600     1.2961     0.6885 C.2     
   5 C5             1.1815     1.9890     0.7204 C.2     
   6 C6            -1.0941    -0.8510     0.0250 C.2     
   7 C7            -0.8734    -2.1586    -0.1947 C.2     
   8 S8             0.8832    -2.3649    -0.0924 S.3     
   9 C9             1.2072    -0.6557     0.2435 C.2     
  10 O10           -1.0790     1.9147     0.5223 O.2     
  11 C11            3.6682     2.0070     0.9214 C.3     
  12 N12            4.0437     1.8889     2.3325 N.pl3   
  13 C13            4.2082     2.3392     4.4752 C.2     
  14 N14            3.6890     2.7763     3.3567 N.2     
  15 C15            4.7878     0.9027     2.8764 C.2     
  16 C16            4.9066     1.1588     4.2013 C.2     
  17 C17            4.0743     2.9933     5.8263 C.3     
  18 Cl18           5.4695    -0.4511     2.0302 Cl      
  19 F19            3.2092     4.0886     5.7305 F       
  20 F20            3.5582     2.0702     6.7422 F       
  21 F21            5.3310     3.4282     6.2605 F       
  22 C22           -1.9029    -3.2242    -0.4700 C.3     
  23 C23           -2.4546    -0.3050     0.0163 C.2     
  24 O24           -3.0721    -0.1929     1.0591 O.2     
  25 N25           -3.0217     0.0729    -1.1465 N.am    
  26 C26           -4.4195     0.5107    -1.1716 C.3     
  27 C27           -4.8123     0.8813    -2.6032 C.3     
  28 H28            1.1790     3.0518     0.9124 H       
  29 H29            4.4423     1.5560     0.3004 H       
  30 H30            3.5610     3.0599     0.6608 H       
  31 H31            5.4453     0.5579     4.9190 H       
  32 H32           -2.1388    -3.2352    -1.5341 H       
  33 H33           -1.5073    -4.1963    -0.1754 H       
  34 H34           -2.8071    -3.0118     0.1005 H       
  35 H35           -2.5043     0.0550    -1.9668 H       
  36 H36           -5.0596    -0.2970    -0.8168 H       
  37 H37           -4.5396     1.3801    -0.5253 H       
  38 H38           -4.1722     1.6890    -2.9580 H       
  39 H39           -4.6922     0.0118    -3.2495 H       
  40 H40           -5.8523     1.2070    -2.6218 H       
@<TRIPOS>BOND
   1    1    2 am
   2    1    5 1
   3    1   10 2
   4    2    6 1
   5    2    9 1
   6    3    4 1
   7    3    9 2
   8    4    5 2
   9    4   11 1
  10    5   28 1
  11    6    7 2
  12    6   23 1
  13    7    8 1
  14    7   22 1
  15    8    9 1
  16   11   12 1
  17   11   29 1
  18   11   30 1
  19   12   15 1
  20   12   14 1
  21   13   14 2
  22   13   16 1
  23   13   17 1
  24   15   16 2
  25   15   18 1
  26   16   31 1
  27   17   19 1
  28   17   20 1
  29   17   21 1
  30   22   32 1
  31   22   33 1
  32   22   34 1
  33   23   24 2
  34   23   25 am
  35   25   26 1
  36   25   35 1
  37   26   27 1
  38   26   36 1
  39   26   37 1
  40   27   38 1
  41   27   39 1
  42   27   40 1

#	End of record

