#	Name: ASD03930027
#	Creating user name:	WinNT
#	Creation time:	15. 06. 2019 20:47

#	Modifying user name:	WinNT
#	Modification time:	15. 06. 2019 20:47

#	Program:	/corina/corina34_cracker 3.40 0067  02.08.2006

@<TRIPOS>MOLECULE
ASD03930027
  27   29    0    0    0
SMALL
NO_CHARGES


@<TRIPOS>ATOM
   1 C1            -0.0166     1.3724     0.0096 C.ar    
   2 C2             0.0021    -0.0041     0.0020 C.ar    
   3 C3             1.1986    -0.7089    -0.0021 C.ar    
   4 C4             2.3924    -0.0478     0.0004 C.ar    
   5 C5             2.3807     1.3635    -0.0152 C.ar    
   6 C6             1.1927     2.0770     0.0018 C.ar    
   7 C7             3.6934    -0.7975     0.0507 C.3     
   8 N8             4.7877    -0.0938    -0.6240 N.am    
   9 S9             5.1672     1.4617    -0.1395 S.o2    
  10 C10            3.5638     2.2373    -0.0701 C.2     
  11 S11            1.5458     3.7990     0.0059 S.3     
  12 C12            3.2774     3.5173    -0.0560 C.2     
  13 O13            5.6512     1.3792     1.1940 O.2     
  14 O14            5.8818     2.0706    -1.2063 O.2     
  15 C15            5.5365    -0.7416    -1.7037 C.3     
  16 C16            4.3105     4.6140    -0.0880 C.3     
  17 H17           -0.9566     1.9042     0.0169 H       
  18 H18           -0.9319    -0.5463    -0.0004 H       
  19 H19            1.1843    -1.7888    -0.0070 H       
  20 H20            3.9677    -0.9542     1.0939 H       
  21 H21            3.5566    -1.7695    -0.4232 H       
  22 H22            5.1413    -1.7439    -1.8695 H       
  23 H23            5.4364    -0.1559    -2.6175 H       
  24 H24            6.5889    -0.8071    -1.4275 H       
  25 H25            4.5241     4.8818    -1.1228 H       
  26 H26            3.9302     5.4871     0.4422 H       
  27 H27            5.2246     4.2663     0.3933 H       
@<TRIPOS>BOND
   1    1    2 ar
   2    1    6 ar
   3    1   17 1
   4    2    3 ar
   5    2   18 1
   6    3    4 ar
   7    3   19 1
   8    4    5 ar
   9    4    7 1
  10    5    6 ar
  11    5   10 1
  12    6   11 1
  13    7    8 1
  14    7   20 1
  15    7   21 1
  16    8    9 am
  17    8   15 1
  18    9   10 1
  19    9   13 2
  20    9   14 2
  21   10   12 2
  22   11   12 1
  23   12   16 1
  24   15   22 1
  25   15   23 1
  26   15   24 1
  27   16   25 1
  28   16   26 1
  29   16   27 1

#	End of record

