#	Name: ASD01940211
#	Creating user name:	WinNT
#	Creation time:	15. 06. 2019 20:12

#	Modifying user name:	WinNT
#	Modification time:	15. 06. 2019 20:12

#	Program:	/corina/corina34_cracker 3.40 0067  02.08.2006

@<TRIPOS>MOLECULE
ASD01940211
  26   27    0    0    0
SMALL
NO_CHARGES


@<TRIPOS>ATOM
   1 N1            -0.1257     1.3540    -0.0259 N.pl3   
   2 C2            -0.0090     0.1096    -0.6532 C.ar    
   3 C3             1.2215    -0.5372    -0.6945 C.ar    
   4 C4             1.3323    -1.7690    -1.3166 C.ar    
   5 C5             0.2191    -2.3548    -1.8969 C.ar    
   6 C6            -1.0040    -1.7121    -1.8560 C.ar    
   7 C7            -1.1225    -0.4854    -1.2312 C.ar    
   8 N8            -2.4351     0.1972    -1.1833 N.pl3   
   9 O9            -3.3900    -0.2770    -1.7723 O.2     
  10 O10           -2.5603     1.2330    -0.5549 O.2     
  11 C11           -0.5347     1.4283     1.3097 C.ar    
  12 C12           -0.5330     2.6517     1.9724 C.ar    
  13 C13           -0.9384     2.7209     3.2921 C.ar    
  14 C14           -1.3449     1.5750     3.9531 C.ar    
  15 C15           -1.3469     0.3580     3.2963 C.ar    
  16 C16           -0.9488     0.2827     1.9752 C.ar    
  17 I17           -1.9579     1.6841     5.9534 I       
  18 F18           -0.1353     3.7701     1.3273 F       
  19 F19            2.5264    -2.3997    -1.3582 F       
  20 F20            2.3065     0.0355    -0.1290 F       
  21 H21            0.0807     2.1653    -0.5158 H       
  22 H22            0.3072    -3.3154    -2.3825 H       
  23 H23           -1.8697    -2.1718    -2.3095 H       
  24 H24           -0.9376     3.6698     3.8079 H       
  25 H25           -1.6644    -0.5342     3.8154 H       
  26 H26           -0.9552    -0.6677     1.4623 H       
@<TRIPOS>BOND
   1    1    2 1
   2    1   11 1
   3    1   21 1
   4    2    3 ar
   5    2    7 ar
   6    3    4 ar
   7    3   20 1
   8    4    5 ar
   9    4   19 1
  10    5    6 ar
  11    5   22 1
  12    6    7 ar
  13    6   23 1
  14    7    8 1
  15    8    9 2
  16    8   10 2
  17   11   12 ar
  18   11   16 ar
  19   12   13 ar
  20   12   18 1
  21   13   14 ar
  22   13   24 1
  23   14   15 ar
  24   14   17 1
  25   15   16 ar
  26   15   25 1
  27   16   26 1

#	End of record

