#	Name: ASD00311003
#	Creating user name:	WinNT
#	Creation time:	15. 06. 2019 18:34

#	Modifying user name:	WinNT
#	Modification time:	15. 06. 2019 18:34

#	Program:	/corina/corina34_cracker 3.40 0067  02.08.2006

@<TRIPOS>MOLECULE
ASD00311003
  34   35    0    0    0
SMALL
NO_CHARGES


@<TRIPOS>ATOM
   1 C1             0.0843     1.3044    -0.8843 C.ar    
   2 N2             0.1046    -0.0138    -0.8808 N.ar    
   3 C3             1.2137    -0.6960    -0.6744 C.ar    
   4 C4             2.4131    -0.0489    -0.4509 C.ar    
   5 C5             2.4385     1.3495    -0.4460 C.ar    
   6 C6             1.2383     2.0320    -0.6694 C.ar    
   7 C7             3.7049     3.5037    -0.2094 C.2     
   8 C8             3.7017     2.0874    -0.2102 C.2     
   9 C9             6.0553     6.3458     0.2296 C.ar    
  10 C10            4.8623     5.6459     0.0069 C.ar    
  11 C11            4.8590     4.1778     0.0061 C.2     
  12 C12            6.0533     7.7168     0.2299 C.ar    
  13 C13            4.8684     8.4134     0.0098 C.ar    
  14 C14            3.6805     7.7224    -0.2124 C.ar    
  15 C15            3.6724     6.3515    -0.2146 C.ar    
  16 O16            4.7366     1.4763    -0.0171 O.2     
  17 N17            4.8713     9.8076     0.0120 N.am    
  18 C18            5.9274    10.4800    -0.4869 C.2     
  19 C19            5.8872    11.9835    -0.5812 C.3     
  20 O20            6.9101     9.8751    -0.8601 O.2     
  21 H21           -0.8465     1.8224    -1.0622 H       
  22 H22            1.1838    -1.7755    -0.6797 H       
  23 H23            3.3178    -0.6141    -0.2822 H       
  24 H24            1.2145     3.1117    -0.6740 H       
  25 H25            2.7867     4.0459    -0.3806 H       
  26 H26            6.9742     5.8062     0.4052 H       
  27 H27            5.7772     3.6356     0.1773 H       
  28 H28            6.9725     8.2572     0.4015 H       
  29 H29            2.7636     8.2672    -0.3827 H       
  30 H30            2.7503     5.8163    -0.3871 H       
  31 H31            4.1132    10.2936     0.3725 H       
  32 H32            4.9318    12.3459    -0.2017 H       
  33 H33            6.6978    12.4066     0.0122 H       
  34 H34            6.0028    12.2856    -1.6221 H       
@<TRIPOS>BOND
   1    1    2 ar
   2    1    6 ar
   3    1   21 1
   4    2    3 ar
   5    3    4 ar
   6    3   22 1
   7    4    5 ar
   8    4   23 1
   9    5    6 ar
  10    5    8 1
  11    6   24 1
  12    7    8 1
  13    7   11 2
  14    7   25 1
  15    8   16 2
  16    9   10 ar
  17    9   12 ar
  18    9   26 1
  19   10   11 1
  20   10   15 ar
  21   11   27 1
  22   12   13 ar
  23   12   28 1
  24   13   14 ar
  25   13   17 1
  26   14   15 ar
  27   14   29 1
  28   15   30 1
  29   17   18 am
  30   17   31 1
  31   18   19 1
  32   18   20 2
  33   19   32 1
  34   19   33 1
  35   19   34 1

#	End of record

