#	Name: ASD01885411
#	Creating user name:	WinNT
#	Creation time:	15. 06. 2019 19:49

#	Modifying user name:	WinNT
#	Modification time:	15. 06. 2019 19:49

#	Program:	/corina/corina34_cracker 3.40 0067  02.08.2006

@<TRIPOS>MOLECULE
ASD01885411
  38   41    0    0    0
SMALL
NO_CHARGES


@<TRIPOS>ATOM
   1 C1            -0.0169     1.3915     0.0097 C.ar    
   2 C2             0.0021    -0.0041     0.0020 C.ar    
   3 N3            -1.1140    -0.7739     0.0204 N.2     
   4 C4            -2.1905    -0.5695    -0.6464 C.2     
   5 C5            -2.3523     0.6309    -1.5418 C.3     
   6 C6            -2.2801     1.8693    -0.6848 C.2     
   7 N7            -1.1829     2.1455     0.0191 N.am    
   8 C8             1.1871     2.0927     0.0020 C.ar    
   9 C9             2.4009     1.4167    -0.0188 C.ar    
  10 C10            2.4182     0.0207    -0.0321 C.ar    
  11 C11            1.2375    -0.6781    -0.0217 C.ar    
  12 C12           -3.2981    -1.5348    -0.5338 C.ar    
  13 C13           -3.1935    -2.6686     0.2877 C.ar    
  14 C14           -4.2763    -3.5282     0.3414 C.ar    
  15 N15           -5.3603    -3.2693    -0.3655 N.ar    
  16 N16           -5.4640    -2.2361    -1.1183 N.ar    
  17 C17           -4.4953    -1.3506    -1.2383 C.ar    
  18 O18           -3.2296     2.6224    -0.6372 O.2     
  19 C19            3.6745     2.1760    -0.0273 C.ar    
  20 C20            4.8923     1.4983    -0.0482 C.ar    
  21 C21            6.0771     2.2104    -0.0560 C.ar    
  22 C22            6.0554     3.5953    -0.0431 C.ar    
  23 C23            4.8476     4.2732    -0.0219 C.ar    
  24 C24            3.6576     3.5696    -0.0203 C.ar    
  25 F25            7.2581     1.5546    -0.0757 F       
  26 F26            4.8325     5.6240    -0.0086 F       
  27 H27           -1.5522     0.6484    -2.2819 H       
  28 H28           -3.3184     0.5872    -2.0446 H       
  29 H29           -1.2004     2.9334     0.5847 H       
  30 H30            1.1768     3.1726     0.0119 H       
  31 H31            3.3596    -0.5083    -0.0509 H       
  32 H32            1.2563    -1.7579    -0.0323 H       
  33 H33           -2.2976    -2.8633     0.8584 H       
  34 H34           -4.2342    -4.4114     0.9615 H       
  35 H35           -4.6201    -0.4928    -1.8825 H       
  36 H36            4.9102     0.4185    -0.0579 H       
  37 H37            6.9830     4.1483    -0.0493 H       
  38 H38            2.7163     4.0990    -0.0041 H       
@<TRIPOS>BOND
   1    1    2 ar
   2    1    8 ar
   3    1    7 1
   4    2    3 1
   5    2   11 ar
   6    3    4 2
   7    4    5 1
   8    4   12 1
   9    5    6 1
  10    5   27 1
  11    5   28 1
  12    6    7 am
  13    6   18 2
  14    7   29 1
  15    8    9 ar
  16    8   30 1
  17    9   10 ar
  18    9   19 1
  19   10   11 ar
  20   10   31 1
  21   11   32 1
  22   12   13 ar
  23   12   17 ar
  24   13   14 ar
  25   13   33 1
  26   14   15 ar
  27   14   34 1
  28   15   16 ar
  29   16   17 ar
  30   17   35 1
  31   19   20 ar
  32   19   24 ar
  33   20   21 ar
  34   20   36 1
  35   21   22 ar
  36   21   25 1
  37   22   23 ar
  38   22   37 1
  39   23   24 ar
  40   23   26 1
  41   24   38 1

#	End of record

