#	Name: ASD00170490
#	Creating user name:	WinNT
#	Creation time:	15. 06. 2019 18:32

#	Modifying user name:	WinNT
#	Modification time:	15. 06. 2019 18:32

#	Program:	/corina/corina34_cracker 3.40 0067  02.08.2006

@<TRIPOS>MOLECULE
ASD00170490
  43   46    0    0    0
SMALL
NO_CHARGES


@<TRIPOS>ATOM
   1 C1            -0.0045     1.3737    -0.0076 C.ar    
   2 C2             0.0202    -0.0244    -0.0404 C.ar    
   3 C3            -1.1693    -0.7382    -0.0371 C.ar    
   4 C4            -2.3737    -0.0692    -0.0015 C.ar    
   5 C5            -2.4112     1.3211     0.0314 C.ar    
   6 C6            -1.2217     2.0461     0.0342 C.ar    
   7 C7            -3.8052    -0.5425     0.0115 C.3     
   8 C8            -4.6494     0.7125     0.0547 C.2     
   9 C9            -3.8345     1.7837     0.0659 C.2     
  10 S10           -6.3255     1.2580     0.0949 S.3     
  11 C11           -5.7817     2.9307     0.1244 C.2     
  12 N12           -4.4920     2.9636     0.1046 N.2     
  13 N13           -6.6099     4.0407     0.1632 N.pl3   
  14 O14            1.2082    -0.6828    -0.0760 O.3     
  15 C15            1.2662     2.1386    -0.0111 C.ar    
  16 C16            1.4489     3.1844    -0.9148 C.ar    
  17 C17            2.6307     3.8944    -0.9160 C.ar    
  18 C18            3.6396     3.5683    -0.0171 C.ar    
  19 C19            3.4597     2.5256     0.8844 C.ar    
  20 C20            2.2773     1.8167     0.8930 C.ar    
  21 N21            4.8356     4.2886    -0.0202 N.pl3   
  22 C22            1.1580    -2.1106    -0.1082 C.3     
  23 C23            5.0790     5.2998    -1.0519 C.3     
  24 C24            5.8470     4.0334     1.0085 C.3     
  25 H25           -1.1515    -1.8177    -0.0628 H       
  26 H26           -1.2444     3.1256     0.0596 H       
  27 H27           -4.0220    -1.1113    -0.8927 H       
  28 H28           -3.9921    -1.1527     0.8951 H       
  29 H29           -7.5731     3.9269     0.1762 H       
  30 H30           -6.2265     4.9316     0.1774 H       
  31 H31            0.6654     3.4379    -1.6135 H       
  32 H32            2.7728     4.7044    -1.6161 H       
  33 H33            4.2452     2.2734     1.5815 H       
  34 H34            2.1379     1.0069     1.5938 H       
  35 H35            0.6165    -2.4351    -0.9968 H       
  36 H36            2.1721    -2.5093    -0.1348 H       
  37 H37            0.6469    -2.4763     0.7824 H       
  38 H38            4.7100     6.2660    -0.7080 H       
  39 H39            6.1490     5.3684    -1.2481 H       
  40 H40            4.5592     5.0172    -1.9674 H       
  41 H41            5.4536     3.3243     1.7368 H       
  42 H42            6.7413     3.6184     0.5436 H       
  43 H43            6.0986     4.9677     1.5103 H       
@<TRIPOS>BOND
   1    1    2 ar
   2    1   15 1
   3    1    6 ar
   4    2    3 ar
   5    2   14 1
   6    3    4 ar
   7    3   25 1
   8    4    5 ar
   9    4    7 1
  10    5    6 ar
  11    5    9 1
  12    6   26 1
  13    7    8 1
  14    7   27 1
  15    7   28 1
  16    8    9 2
  17    8   10 1
  18    9   12 1
  19   10   11 1
  20   11   12 2
  21   11   13 1
  22   13   29 1
  23   13   30 1
  24   14   22 1
  25   15   16 ar
  26   15   20 ar
  27   16   17 ar
  28   16   31 1
  29   17   18 ar
  30   17   32 1
  31   18   19 ar
  32   18   21 1
  33   19   20 ar
  34   19   33 1
  35   20   34 1
  36   21   23 1
  37   21   24 1
  38   22   35 1
  39   22   36 1
  40   22   37 1
  41   23   38 1
  42   23   39 1
  43   23   40 1
  44   24   41 1
  45   24   42 1
  46   24   43 1

#	End of record

