#	Name: ASD01815549
#	Creating user name:	WinNT
#	Creation time:	15. 06. 2019 19:33

#	Modifying user name:	WinNT
#	Modification time:	15. 06. 2019 19:33

#	Program:	/corina/corina34_cracker 3.40 0067  02.08.2006

@<TRIPOS>MOLECULE
ASD01815549
  62   67    0    0    0
SMALL
NO_CHARGES


@<TRIPOS>ATOM
   1 C1            -0.0168     1.3869     0.0097 C.ar    
   2 C2             0.0021    -0.0041     0.0020 C.ar    
   3 C3             1.1801    -0.6897    -0.0129 C.ar    
   4 C4             2.3948     0.0129    -0.0207 C.ar    
   5 C5             2.3717     1.4290    -0.0129 C.ar    
   6 C6             1.1455     2.1015     0.0024 C.ar    
   7 C7             3.6293    -0.6694    -0.0365 C.ar    
   8 C8             4.8031     0.0063    -0.0446 C.ar    
   9 C9             4.8359     1.4095    -0.0374 C.ar    
  10 C10            3.6406     2.1511    -0.0211 C.ar    
  11 C11            6.1026     2.1526    -0.0470 C.2     
  12 N12            6.0328     3.5041    -0.0399 N.am    
  13 C13            4.8302     4.1313    -0.0241 C.2     
  14 N14            3.6961     3.4935    -0.0158 N.2     
  15 O15            7.1745     1.5748    -0.0604 O.2     
  16 C16            7.2655     4.2957    -0.0490 C.3     
  17 C17            7.3178     5.1723     1.2039 C.3     
  18 C18            8.6052     5.9990     1.1945 C.3     
  19 C19            8.6317     6.8873    -0.0509 C.3     
  20 C20            8.5794     6.0107    -1.3038 C.3     
  21 C21            7.2920     5.1840    -1.2944 C.3     
  22 O22            7.2930     4.3426     2.3671 O.3     
  23 C23            3.6424    -2.1763    -0.0442 C.3     
  24 N24            3.3924    -2.6612    -1.4081 N.3     
  25 C25            3.6307    -4.1081    -1.5046 C.3     
  26 C26            3.2837    -4.5866    -2.9164 C.3     
  27 N27            4.1016    -3.8547    -3.8937 N.3     
  28 C28            3.8633    -2.4078    -3.7972 C.3     
  29 C29            4.2103    -1.9294    -2.3854 C.3     
  30 C30            3.8655    -4.3126    -5.1815 C.2     
  31 N31            3.0389    -5.2601    -5.5209 N.2     
  32 N32            2.9504    -5.5478    -6.7455 N.2     
  33 C33            3.6840    -4.8847    -7.5788 C.2     
  34 S34            4.6255    -3.7110    -6.6565 S.3     
  35 H35           -0.9630     1.9076     0.0169 H       
  36 H36           -0.9305    -0.5488     0.0083 H       
  37 H37            1.1786    -1.7697    -0.0183 H       
  38 H38            1.1188     3.1811     0.0081 H       
  39 H39            5.7317    -0.5451    -0.0563 H       
  40 H40            4.8132     5.2111    -0.0182 H       
  41 H41            8.1264     3.6273    -0.0610 H       
  42 H42            6.4569     5.8406     1.2159 H       
  43 H43            8.6425     6.6235     2.0871 H       
  44 H44            9.4662     5.3306     1.1825 H       
  45 H45            7.7708     7.5557    -0.0389 H       
  46 H46            9.5489     7.4763    -0.0577 H       
  47 H47            8.5983     6.6436    -2.1911 H       
  48 H48            9.4403     5.3423    -1.3159 H       
  49 H49            7.2547     4.5595    -2.1870 H       
  50 H50            6.4311     5.8523    -1.2824 H       
  51 H51            7.3237     4.8324     3.2003 H       
  52 H52            4.6147    -2.5329     0.2957 H       
  53 H53            2.8651    -2.5498     0.6224 H       
  54 H54            4.6799    -4.3185    -1.2969 H       
  55 H55            3.0047    -4.6289    -0.7800 H       
  56 H56            3.4872    -5.6542    -2.9988 H       
  57 H57            2.2280    -4.4009    -3.1140 H       
  58 H58            4.4893    -1.8871    -4.5218 H       
  59 H59            2.8141    -2.1974    -4.0049 H       
  60 H60            4.0068    -0.8617    -2.3030 H       
  61 H61            5.2660    -2.1150    -2.1878 H       
  62 H62            3.7126    -5.0222    -8.6497 H       
@<TRIPOS>BOND
   1    1    2 ar
   2    1    6 ar
   3    1   35 1
   4    2    3 ar
   5    2   36 1
   6    3    4 ar
   7    3   37 1
   8    4    5 ar
   9    4    7 ar
  10    5    6 ar
  11    5   10 ar
  12    6   38 1
  13    7    8 ar
  14    7   23 1
  15    8    9 ar
  16    8   39 1
  17    9   10 ar
  18    9   11 1
  19   10   14 1
  20   11   12 am
  21   11   15 2
  22   12   13 1
  23   12   16 1
  24   13   14 2
  25   13   40 1
  26   16   17 1
  27   16   21 1
  28   16   41 1
  29   17   18 1
  30   17   22 1
  31   17   42 1
  32   18   19 1
  33   18   43 1
  34   18   44 1
  35   19   20 1
  36   19   45 1
  37   19   46 1
  38   20   21 1
  39   20   47 1
  40   20   48 1
  41   21   49 1
  42   21   50 1
  43   22   51 1
  44   23   24 1
  45   23   52 1
  46   23   53 1
  47   24   25 1
  48   24   29 1
  49   25   26 1
  50   25   54 1
  51   25   55 1
  52   26   27 1
  53   26   56 1
  54   26   57 1
  55   27   28 1
  56   27   30 1
  57   28   29 1
  58   28   58 1
  59   28   59 1
  60   29   60 1
  61   29   61 1
  62   30   31 2
  63   30   34 1
  64   31   32 1
  65   32   33 2
  66   33   34 1
  67   33   62 1

#	End of record

