#	Name: ASD03331049
#	Creating user name:	WinNT
#	Creation time:	15. 06. 2019 20:38

#	Modifying user name:	WinNT
#	Modification time:	15. 06. 2019 20:38

#	Program:	/corina/corina34_cracker 3.40 0067  02.08.2006

@<TRIPOS>MOLECULE
ASD03331049
  70   72    0    0    0
SMALL
NO_CHARGES


@<TRIPOS>ATOM
   1 N1             0.0560     1.1534    -0.7751 N.pl3   
   2 C2             0.0610    -0.1791    -0.5049 C.2     
   3 C3             1.2824    -1.0105    -0.2113 C.3     
   4 N4             2.1151    -0.3110     0.7795 N.3     
   5 C5             3.0668     0.5920     0.1295 C.3     
   6 C6             2.4698     1.1921    -1.1402 C.3     
   7 C7             1.2342     2.0251    -0.7887 C.3     
   8 C8            -1.2372     1.5168    -1.0148 C.2     
   9 N9            -2.0015     0.4584    -0.8807 N.2     
  10 C10           -1.2310    -0.6050    -0.5632 C.2     
  11 C11           -1.7042    -1.9798    -0.3235 C.2     
  12 O12           -0.9090    -2.8565    -0.0436 O.2     
  13 N13           -3.0181    -2.2658    -0.4143 N.am    
  14 C14            2.8089    -1.2669     1.6530 C.3     
  15 C15           -4.7931    -3.8481    -0.8988 C.2     
  16 C16           -3.4885    -3.6326    -0.1760 C.3     
  17 C17           -3.6956    -3.8462     1.3248 C.3     
  18 C18           -4.7921    -2.9049     1.8274 C.3     
  19 O19           -5.4283    -2.8962    -1.3004 O.2     
  20 C20           -4.1114    -5.2962     1.5810 C.3     
  21 C21           -2.3906    -3.5511     2.0669 C.3     
  22 N22           -5.2540    -5.0987    -1.0991 N.am    
  23 C23           -6.5600    -5.3058    -1.7296 C.3     
  24 C24           -6.8418    -6.8057    -1.8382 C.3     
  25 C25           -8.1460    -7.0253    -2.6074 C.3     
  26 C26           -5.6910    -7.4884    -2.5802 C.3     
  27 O27           -6.9616    -7.3639    -0.5282 O.3     
  28 C28           -1.7003     2.8767    -1.3665 C.ar    
  29 C29           -2.6001     3.0612    -2.4197 C.ar    
  30 C30           -3.0289     4.3349    -2.7425 C.ar    
  31 C31           -2.5693     5.4246    -2.0256 C.ar    
  32 C32           -1.6774     5.2479    -0.9814 C.ar    
  33 C33           -1.2453     3.9802    -0.6448 C.ar    
  34 F34           -3.0493     1.9974    -3.1209 F       
  35 Cl35          -1.1059     6.6228    -0.0889 Cl      
  36 H36            0.9773    -1.9781     0.1872 H       
  37 H37            1.8528    -1.1566    -1.1286 H       
  38 H38            3.3252     1.3962     0.8185 H       
  39 H39            3.9693     0.0372    -0.1266 H       
  40 H40            3.2109     1.8292    -1.6230 H       
  41 H41            2.1845     0.3899    -1.8207 H       
  42 H42            1.0990     2.8089    -1.5340 H       
  43 H43            1.3659     2.4751     0.1952 H       
  44 H44           -3.6523    -1.5666    -0.6375 H       
  45 H45            3.3948    -1.9559     1.0447 H       
  46 H46            3.4709    -0.7265     2.3296 H       
  47 H47            2.0757    -1.8275     2.2328 H       
  48 H48           -2.7472    -4.3415    -0.5450 H       
  49 H49           -5.7219    -3.1151     1.2987 H       
  50 H50           -4.9397    -3.0571     2.8965 H       
  51 H51           -4.4960    -1.8719     1.6449 H       
  52 H52           -3.3203    -5.9660     1.2438 H       
  53 H53           -4.2811    -5.4425     2.6477 H       
  54 H54           -5.0288    -5.5132     1.0339 H       
  55 H55           -2.0944    -2.5181     1.8844 H       
  56 H56           -2.5382    -3.7033     3.1361 H       
  57 H57           -1.6094    -4.2217     1.7088 H       
  58 H58           -4.7209    -5.8616    -0.8258 H       
  59 H59           -7.3343    -4.8335    -1.1251 H       
  60 H60           -6.5567    -4.8637    -2.7259 H       
  61 H61           -8.0546    -6.5995    -3.6066 H       
  62 H62           -8.3468    -8.0938    -2.6848 H       
  63 H63           -8.9659    -6.5389    -2.0788 H       
  64 H64           -4.7619    -7.3320    -2.0322 H       
  65 H65           -5.8918    -8.5570    -2.6575 H       
  66 H66           -5.5996    -7.0627    -3.5794 H       
  67 H67           -7.6732    -6.9775     0.0004 H       
  68 H68           -3.7240     4.4796    -3.5563 H       
  69 H69           -2.9073     6.4178    -2.2816 H       
  70 H70           -0.5534     3.8438     0.1731 H       
@<TRIPOS>BOND
   1    1    2 1
   2    1    7 1
   3    1    8 1
   4    2    3 1
   5    2   10 2
   6    3    4 1
   7    3   36 1
   8    3   37 1
   9    4    5 1
  10    4   14 1
  11    5    6 1
  12    5   38 1
  13    5   39 1
  14    6    7 1
  15    6   40 1
  16    6   41 1
  17    7   42 1
  18    7   43 1
  19    8    9 2
  20    8   28 1
  21    9   10 1
  22   10   11 1
  23   11   12 2
  24   11   13 am
  25   13   16 1
  26   13   44 1
  27   14   45 1
  28   14   46 1
  29   14   47 1
  30   15   19 2
  31   15   22 am
  32   15   16 1
  33   16   17 1
  34   16   48 1
  35   17   18 1
  36   17   20 1
  37   17   21 1
  38   18   49 1
  39   18   50 1
  40   18   51 1
  41   20   52 1
  42   20   53 1
  43   20   54 1
  44   21   55 1
  45   21   56 1
  46   21   57 1
  47   22   23 1
  48   22   58 1
  49   23   24 1
  50   23   59 1
  51   23   60 1
  52   24   25 1
  53   24   26 1
  54   24   27 1
  55   25   61 1
  56   25   62 1
  57   25   63 1
  58   26   64 1
  59   26   65 1
  60   26   66 1
  61   27   67 1
  62   28   29 ar
  63   28   33 ar
  64   29   30 ar
  65   29   34 1
  66   30   31 ar
  67   30   68 1
  68   31   32 ar
  69   31   69 1
  70   32   33 ar
  71   32   35 1
  72   33   70 1

#	End of record

