#	Name: ASD00430002
#	Creating user name:	WinNT
#	Creation time:	15. 06. 2019 18:35

#	Modifying user name:	WinNT
#	Modification time:	15. 06. 2019 18:35

#	Program:	/corina/corina34_cracker 3.40 0067  02.08.2006

@<TRIPOS>MOLECULE
ASD00430002
  72   76    0    0    0
SMALL
NO_CHARGES


@<TRIPOS>ATOM
   1 C1            -0.0655     1.5021    -0.0334 C.2     
   2 C2            -0.0768     0.0236    -0.0292 C.2     
   3 N3             2.3088     0.1253     0.0725 N.am    
   4 C4             2.2715     1.4656     0.0663 C.2     
   5 N5             1.1151     2.1463     0.0148 N.am    
   6 C6            -1.1649    -0.8598    -0.0727 C.2     
   7 C7            -0.8232    -2.1554    -0.0540 C.2     
   8 S8             0.9218    -2.3208     0.0209 S.3     
   9 C9             1.1464    -0.6274     0.0250 C.2     
  10 C10           -1.7733    -3.2761    -0.0904 C.2     
  11 N11           -1.4572    -4.5530    -0.0729 N.2     
  12 C12           -2.5879    -5.2749    -0.1183 C.2     
  13 C13           -3.6234    -4.4185    -0.1649 C.2     
  14 O14           -3.1136    -3.1695    -0.1416 O.3     
  15 C15           -2.5961    -0.3922    -0.1347 C.3     
  16 O16           -1.1085     2.1275    -0.0849 O.2     
  17 O17            3.3175     2.0841     0.1089 O.2     
  18 C18            1.1391     3.6111     0.0107 C.3     
  19 C19            1.7528     4.1071     1.2946 C.2     
  20 C20            1.9701     4.1042    -1.1756 C.3     
  21 C21           -0.2898     4.1443    -0.1109 C.3     
  22 N22            1.4812     3.4815     2.4571 N.am    
  23 O23            2.4911     5.0692     1.2818 O.2     
  24 C24            3.6041    -0.5567     0.1299 C.3     
  25 C25            3.9939    -0.7890     1.5910 C.3     
  26 C26            5.3263    -1.4906     1.6500 C.ar    
  27 C27            5.3879    -2.8733     1.5526 C.ar    
  28 C28            6.6158    -3.5161     1.6073 C.ar    
  29 C29            7.7743    -2.7785     1.7585 C.ar    
  30 C30            7.7102    -1.4009     1.8557 C.ar    
  31 C31            6.4877    -0.7573     1.7953 C.ar    
  32 O32            4.2470    -3.5967     1.4044 O.3     
  33 C33            4.3861    -5.0158     1.3109 C.3     
  34 O34            4.0870     0.4677     2.2648 O.3     
  35 C35            3.7733     0.4051     3.6575 C.3     
  36 C36            5.0497     0.1298     4.4584 C.3     
  37 C37            3.1787     1.7425     4.1094 C.3     
  38 C38            2.9191     1.6932     5.6174 C.3     
  39 O39            4.1404     1.4028     6.3004 O.3     
  40 C40            4.7178     0.1427     5.9529 C.3     
  41 H41           -2.6541    -6.3529    -0.1179 H       
  42 H42           -4.6699    -4.6817    -0.2082 H       
  43 H43           -2.8977    -0.2824    -1.1764 H       
  44 H44           -3.2390    -1.1240     0.3545 H       
  45 H45           -2.6869     0.5681     0.3730 H       
  46 H46            1.5262     3.7455    -2.1042 H       
  47 H47            1.9880     5.1941    -1.1787 H       
  48 H48            2.9881     3.7244    -1.0890 H       
  49 H49           -0.8818     3.7930     0.7342 H       
  50 H50           -0.2719     5.2341    -0.1140 H       
  51 H51           -0.7337     3.7855    -1.0395 H       
  52 H52            0.8373     2.7564     2.4787 H       
  53 H53            1.9296     3.7564     3.2721 H       
  54 H54            3.5330    -1.5153    -0.3841 H       
  55 H55            4.3611     0.0600    -0.3545 H       
  56 H56            3.2368    -1.4057     2.0754 H       
  57 H57            6.6664    -4.5923     1.5321 H       
  58 H58            8.7306    -3.2784     1.8011 H       
  59 H59            8.6168    -0.8261     1.9745 H       
  60 H60            6.4407     0.3193     1.8666 H       
  61 H61            5.0045    -5.2642     0.4483 H       
  62 H62            4.8578    -5.3952     2.2173 H       
  63 H63            3.4023    -5.4706     1.1956 H       
  64 H64            3.0517    -0.3927     3.8333 H       
  65 H65            5.4494    -0.8460     4.1825 H       
  66 H66            5.7887     0.9014     4.2427 H       
  67 H67            3.8799     2.5467     3.8867 H       
  68 H68            2.2404     1.9201     3.5839 H       
  69 H69            2.5358     2.6571     5.9520 H       
  70 H70            2.1872     0.9154     5.8350 H       
  71 H71            4.0094    -0.6554     6.1749 H       
  72 H72            5.6303    -0.0103     6.5292 H       
@<TRIPOS>BOND
   1    1    2 1
   2    1    5 am
   3    1   16 2
   4    2    6 1
   5    2    9 2
   6    3    4 am
   7    3   24 1
   8    3    9 1
   9    4    5 am
  10    4   17 2
  11    5   18 1
  12    6    7 2
  13    6   15 1
  14    7    8 1
  15    7   10 1
  16    8    9 1
  17   10   11 2
  18   10   14 1
  19   11   12 1
  20   12   13 2
  21   12   41 1
  22   13   14 1
  23   13   42 1
  24   15   43 1
  25   15   44 1
  26   15   45 1
  27   18   19 1
  28   18   20 1
  29   18   21 1
  30   19   22 am
  31   19   23 2
  32   20   46 1
  33   20   47 1
  34   20   48 1
  35   21   49 1
  36   21   50 1
  37   21   51 1
  38   22   52 1
  39   22   53 1
  40   24   25 1
  41   24   54 1
  42   24   55 1
  43   25   26 1
  44   25   34 1
  45   25   56 1
  46   26   27 ar
  47   26   31 ar
  48   27   28 ar
  49   27   32 1
  50   28   29 ar
  51   28   57 1
  52   29   30 ar
  53   29   58 1
  54   30   31 ar
  55   30   59 1
  56   31   60 1
  57   32   33 1
  58   33   61 1
  59   33   62 1
  60   33   63 1
  61   34   35 1
  62   35   37 1
  63   35   36 1
  64   35   64 1
  65   36   40 1
  66   36   65 1
  67   36   66 1
  68   37   38 1
  69   37   67 1
  70   37   68 1
  71   38   39 1
  72   38   69 1
  73   38   70 1
  74   39   40 1
  75   40   71 1
  76   40   72 1

#	End of record

