#	Name: ASD04230040
#	Creating user name:	WinNT
#	Creation time:	15. 06. 2019 20:48

#	Modifying user name:	WinNT
#	Modification time:	15. 06. 2019 20:48

#	Program:	/corina/corina34_cracker 3.40 0067  02.08.2006

@<TRIPOS>MOLECULE
ASD04230040
  28   29    0    0    0
SMALL
NO_CHARGES


@<TRIPOS>ATOM
   1 N1            -0.0169     1.3927     0.0097 N.pl3   
   2 C2             1.2258    -2.0739    -0.0203 C.ar    
   3 C3             1.2121    -0.6813    -0.0132 C.ar    
   4 C4             0.0021    -0.0041     0.0020 C.ar    
   5 C5            -1.1920    -0.7157     0.0101 C.ar    
   6 C6            -1.1772    -2.0973     0.0030 C.ar    
   7 C7             0.0235    -2.7790    -0.0122 C.ar    
   8 C8             2.5164    -2.8047    -0.0427 C.ar    
   9 C9             2.7579    -3.8317     0.8751 C.ar    
  10 C10            3.9660    -4.5094     0.8467 C.ar    
  11 C11            4.9283    -4.1706    -0.0859 C.ar    
  12 C12            4.6921    -3.1550    -0.9952 C.ar    
  13 C13            3.4907    -2.4751    -0.9815 C.ar    
  14 O14            1.8116    -4.1635     1.7915 O.3     
  15 C15            2.1285    -5.2226     2.6969 C.3     
  16 F16            3.2646    -4.8789     3.4374 F       
  17 F17            1.0516    -5.4317     3.5652 F       
  18 F18            2.3794    -6.3942     1.9747 F       
  19 H19            0.8165     1.8891     0.0044 H       
  20 H20           -0.8634     1.8662     0.0163 H       
  21 H21            2.1411    -0.1305    -0.0191 H       
  22 H22           -2.1339    -0.1873     0.0222 H       
  23 H23           -2.1076    -2.6458     0.0096 H       
  24 H24            0.0311    -3.8590    -0.0180 H       
  25 H25            4.1562    -5.3029     1.5542 H       
  26 H26            5.8689    -4.7009    -0.1047 H       
  27 H27            5.4488    -2.8959    -1.7209 H       
  28 H28            3.3081    -1.6858    -1.6957 H       
@<TRIPOS>BOND
   1    1    4 1
   2    1   19 1
   3    1   20 1
   4    2    3 ar
   5    2    7 ar
   6    2    8 1
   7    3    4 ar
   8    3   21 1
   9    4    5 ar
  10    5    6 ar
  11    5   22 1
  12    6    7 ar
  13    6   23 1
  14    7   24 1
  15    8    9 ar
  16    8   13 ar
  17    9   10 ar
  18    9   14 1
  19   10   11 ar
  20   10   25 1
  21   11   12 ar
  22   11   26 1
  23   12   13 ar
  24   12   27 1
  25   13   28 1
  26   14   15 1
  27   15   16 1
  28   15   17 1
  29   15   18 1

#	End of record

