#	Name: ASD03091479
#	Creating user name:	WinNT
#	Creation time:	15. 06. 2019 20:30

#	Modifying user name:	WinNT
#	Modification time:	15. 06. 2019 20:30

#	Program:	/corina/corina34_cracker 3.40 0067  02.08.2006

@<TRIPOS>MOLECULE
ASD03091479
  43   46    0    0    0
SMALL
NO_CHARGES


@<TRIPOS>ATOM
   1 N1            -0.0091     1.3376    -0.0440 N.pl3   
   2 C2             0.0140    -0.0187    -0.0546 C.2     
   3 C3             1.1494    -0.7206     0.2201 C.2     
   4 C4             2.3842     0.0188     0.5275 C.2     
   5 C5             2.3771     1.4614     0.2502 C.ar    
   6 C6             3.5474     2.2325     0.2612 C.ar    
   7 N7             3.4817     3.5296    -0.0018 N.ar    
   8 C8             2.3383     4.1339    -0.2776 C.ar    
   9 C9             1.1441     3.4484    -0.3061 C.ar    
  10 C10            1.1447     2.0797    -0.0365 C.ar    
  11 N11            4.7663     1.6419     0.5461 N.pl3   
  12 C12            5.9451     2.3853     0.4394 C.ar    
  13 C13            6.9975     2.1511     1.3152 C.ar    
  14 C14            8.1608     2.8876     1.2070 C.ar    
  15 C15            8.2784     3.8576     0.2284 C.ar    
  16 C16            7.2324     4.0936    -0.6448 C.ar    
  17 C17            6.0689     3.3562    -0.5464 C.ar    
  18 O18            3.3654    -0.5389     0.9903 O.2     
  19 C19            1.1407    -2.2036     0.2099 C.ar    
  20 C20            0.9019    -2.8926    -0.9781 C.ar    
  21 C21            0.8944    -4.2719    -0.9842 C.ar    
  22 C22            1.1243    -4.9738     0.1910 C.ar    
  23 C23            1.3624    -4.2908     1.3757 C.ar    
  24 C24            1.3769    -2.9116     1.3873 C.ar    
  25 O25            1.1159    -6.3329     0.1818 O.3     
  26 C26            1.3598    -6.9916     1.4262 C.3     
  27 H27           -0.8644     1.7951    -0.0458 H       
  28 H28           -0.8929    -0.5573    -0.2869 H       
  29 H29            2.3410     5.1936    -0.4859 H       
  30 H30            0.2217     3.9624    -0.5330 H       
  31 H31            4.8025     0.7120     0.8198 H       
  32 H32            6.9060     1.3942     2.0802 H       
  33 H33            8.9794     2.7060     1.8877 H       
  34 H34            9.1891     4.4323     0.1462 H       
  35 H35            7.3273     4.8524    -1.4075 H       
  36 H36            5.2544     3.5374    -1.2320 H       
  37 H37            0.7226    -2.3470    -1.8928 H       
  38 H38            0.7091    -4.8062    -1.9043 H       
  39 H39            1.5407    -4.8398     2.2885 H       
  40 H40            1.5666    -2.3807     2.3085 H       
  41 H41            2.3430    -6.7074     1.8012 H       
  42 H42            0.5971    -6.6989     2.1479 H       
  43 H43            1.3252    -8.0711     1.2788 H       
@<TRIPOS>BOND
   1    1    2 1
   2    1   10 1
   3    1   27 1
   4    2    3 2
   5    2   28 1
   6    3    4 1
   7    3   19 1
   8    4    5 1
   9    4   18 2
  10    5    6 ar
  11    5   10 ar
  12    6    7 ar
  13    6   11 1
  14    7    8 ar
  15    8    9 ar
  16    8   29 1
  17    9   10 ar
  18    9   30 1
  19   11   12 1
  20   11   31 1
  21   12   13 ar
  22   12   17 ar
  23   13   14 ar
  24   13   32 1
  25   14   15 ar
  26   14   33 1
  27   15   16 ar
  28   15   34 1
  29   16   17 ar
  30   16   35 1
  31   17   36 1
  32   19   20 ar
  33   19   24 ar
  34   20   21 ar
  35   20   37 1
  36   21   22 ar
  37   21   38 1
  38   22   23 ar
  39   22   25 1
  40   23   24 ar
  41   23   39 1
  42   24   40 1
  43   25   26 1
  44   26   41 1
  45   26   42 1
  46   26   43 1

#	End of record

