#	Name: ASD04590381
#	Creating user name:	WinNT
#	Creation time:	15. 06. 2019 20:50

#	Modifying user name:	WinNT
#	Modification time:	15. 06. 2019 20:50

#	Program:	/corina/corina34_cracker 3.40 0067  02.08.2006

@<TRIPOS>MOLECULE
ASD04590381
  36   39    0    0    0
SMALL
NO_CHARGES


@<TRIPOS>ATOM
   1 C1            -0.0168     1.3866     0.0097 C.ar    
   2 C2             0.0021    -0.0041     0.0020 C.ar    
   3 C3            -2.3993    -0.0407     0.0243 C.ar    
   4 C4            -2.4115     1.3648     0.0440 C.ar    
   5 C5            -1.2158     2.0688     0.0305 C.ar    
   6 N6            -3.6906    -0.4533     0.0441 N.2     
   7 C7            -4.4858     0.5887     0.0743 C.2     
   8 N8            -3.7426     1.7385     0.0755 N.pl3   
   9 C9            -5.9620     0.5308     0.1022 C.2     
  10 C10           -6.7480    -0.6448     0.1014 C.2     
  11 C11           -8.0505    -0.2710     0.1319 C.2     
  12 N12           -8.0938     1.0872     0.1512 N.pl3   
  13 N13           -6.7778     1.5661     0.1379 N.2     
  14 N14           -6.2654    -1.9633     0.0737 N.am    
  15 C15           -7.1298    -2.9974     0.0764 C.2     
  16 O16           -8.3276    -2.7886     0.1030 O.2     
  17 C17           -6.6229    -4.3825     0.0472 C.ar    
  18 C18           -6.4050    -5.0263    -1.1756 C.ar    
  19 C19           -5.9300    -6.3242    -1.1937 C.ar    
  20 C20           -5.6706    -6.9864    -0.0076 C.ar    
  21 C21           -5.8831    -6.3576     1.2057 C.ar    
  22 C22           -6.3519    -5.0578     1.2422 C.ar    
  23 F23           -6.6587    -4.3815    -2.3354 F       
  24 F24           -6.5588    -4.4452     2.4285 F       
  25 C25           -1.1756    -0.7186     0.0090 C.ar    
  26 Cl26           1.4779     2.2695     0.0001 Cl      
  27 F27            1.1837    -0.6588    -0.0128 F       
  28 H28           -1.2237     3.1488     0.0367 H       
  29 H29           -4.0856     2.6456     0.0951 H       
  30 H30           -8.9026    -0.9346     0.1389 H       
  31 H31           -8.8970     1.6307     0.1742 H       
  32 H32           -5.3101    -2.1298     0.0525 H       
  33 H33           -5.7613    -6.8227    -2.1368 H       
  34 H34           -5.3002    -8.0007    -0.0289 H       
  35 H35           -5.6782    -6.8821     2.1273 H       
  36 H36           -1.1544    -1.7983     0.0023 H       
@<TRIPOS>BOND
   1    1    2 ar
   2    1   26 1
   3    1    5 ar
   4    2   25 ar
   5    2   27 1
   6    3    4 ar
   7    3    6 1
   8    3   25 ar
   9    4    5 ar
  10    4    8 1
  11    5   28 1
  12    6    7 2
  13    7    8 1
  14    7    9 1
  15    8   29 1
  16    9   10 1
  17    9   13 2
  18   10   11 2
  19   10   14 1
  20   11   12 1
  21   11   30 1
  22   12   13 1
  23   12   31 1
  24   14   15 am
  25   14   32 1
  26   15   16 2
  27   15   17 1
  28   17   18 ar
  29   17   22 ar
  30   18   19 ar
  31   18   23 1
  32   19   20 ar
  33   19   33 1
  34   20   21 ar
  35   20   34 1
  36   21   22 ar
  37   21   35 1
  38   22   24 1
  39   25   36 1

#	End of record

