#	Name: ASD01901342
#	Creating user name:	WinNT
#	Creation time:	15. 06. 2019 19:53

#	Modifying user name:	WinNT
#	Modification time:	15. 06. 2019 19:53

#	Program:	/corina/corina34_cracker 3.40 0067  02.08.2006

@<TRIPOS>MOLECULE
ASD01901342
  38   41    0    0    0
SMALL
NO_CHARGES


@<TRIPOS>ATOM
   1 C1            -0.0168     1.3891     0.0097 C.ar    
   2 C2             1.1701     2.0931     0.0021 C.ar    
   3 C3             2.3782     1.4173    -0.0130 C.ar    
   4 C4             2.4021     0.0331    -0.0207 C.ar    
   5 C5             1.2205    -0.6797    -0.0132 C.ar    
   6 C6             0.0021    -0.0041     0.0020 C.ar    
   7 C7            -1.2716    -0.7660     0.0106 C.2     
   8 N8            -3.2652    -1.3681     1.1229 N.2     
   9 C9            -2.1417    -0.6934     1.1201 C.2     
  10 C10           -1.6214    -1.5432    -1.0579 C.2     
  11 N11           -2.7984    -2.2301    -1.0175 N.pl3   
  12 C12           -3.6138    -2.1380     0.0811 C.2     
  13 C13           -3.4120    -3.0704    -1.9072 C.2     
  14 C14           -4.5717    -3.4680    -1.3422 C.2     
  15 N15           -4.6781    -2.8968    -0.1387 N.2     
  16 C16           -5.5778    -4.4018    -1.9641 C.3     
  17 O17           -5.1168    -4.8079    -3.2542 O.3     
  18 C18           -5.9134    -5.6574    -3.9548 C.ar    
  19 C19           -7.1167    -6.0867    -3.4139 C.ar    
  20 C20           -5.5273    -6.0924    -5.2143 C.ar    
  21 C21           -6.3387    -6.9560    -5.9243 C.ar    
  22 C22           -7.5350    -7.3865    -5.3809 C.ar    
  23 C23           -7.9246    -6.9503    -4.1280 C.ar    
  24 Cl24           3.8680     2.3084    -0.0231 Cl      
  25 H25           -0.9588     1.9172     0.0260 H       
  26 H26            1.1565     3.1730     0.0077 H       
  27 H27            3.3471    -0.4897    -0.0329 H       
  28 H28            1.2402    -1.7595    -0.0196 H       
  29 H29           -1.8803    -0.0800     1.9697 H       
  30 H30           -0.9756    -1.6120    -1.9208 H       
  31 H31           -3.0386    -3.3605    -2.8782 H       
  32 H32           -5.7001    -5.2792    -1.3291 H       
  33 H33           -6.5349    -3.8899    -2.0647 H       
  34 H34           -7.4214    -5.7463    -2.4353 H       
  35 H35           -4.5933    -5.7558    -5.6395 H       
  36 H36           -6.0386    -7.2948    -6.9049 H       
  37 H37           -8.1684    -8.0610    -5.9379 H       
  38 H38           -8.8614    -7.2847    -3.7074 H       
@<TRIPOS>BOND
   1    1    6 ar
   2    1    2 ar
   3    1   25 1
   4    2    3 ar
   5    2   26 1
   6    3    4 ar
   7    3   24 1
   8    4    5 ar
   9    4   27 1
  10    5    6 ar
  11    5   28 1
  12    6    7 1
  13    7   10 2
  14    7    9 1
  15    8    9 2
  16    8   12 1
  17    9   29 1
  18   10   11 1
  19   10   30 1
  20   11   13 1
  21   11   12 1
  22   12   15 2
  23   13   14 2
  24   13   31 1
  25   14   15 1
  26   14   16 1
  27   16   17 1
  28   16   32 1
  29   16   33 1
  30   17   18 1
  31   18   20 ar
  32   18   19 ar
  33   19   23 ar
  34   19   34 1
  35   20   21 ar
  36   20   35 1
  37   21   22 ar
  38   21   36 1
  39   22   23 ar
  40   22   37 1
  41   23   38 1

#	End of record

