#	Name: ASD01120119
#	Creating user name:	WinNT
#	Creation time:	15. 06. 2019 18:59

#	Modifying user name:	WinNT
#	Modification time:	15. 06. 2019 18:59

#	Program:	/corina/corina34_cracker 3.40 0067  02.08.2006

@<TRIPOS>MOLECULE
ASD01120119
  32   34    0    0    0
SMALL
NO_CHARGES


@<TRIPOS>ATOM
   1 C1            -0.0121     1.3831     0.0916 C.ar    
   2 C2             0.0736     0.1635    -0.5542 C.ar    
   3 C3             1.2768    -0.5133    -0.5984 C.ar    
   4 C4             2.4015     0.0326     0.0069 C.ar    
   5 C5             2.3118     1.2583     0.6551 C.ar    
   6 C6             1.1058     1.9296     0.6954 C.ar    
   7 N7             3.6204    -0.6497    -0.0355 N.pl3   
   8 C8             4.8072     0.0578    -0.1476 C.2     
   9 N9             5.9958    -0.4573    -0.0799 N.2     
  10 C10            7.0231     0.3804    -0.2101 C.2     
  11 C11            6.6926     1.6698    -0.3975 C.2     
  12 S12            4.9351     1.7941    -0.4116 S.3     
  13 C13            8.4326    -0.0773    -0.1520 C.ar    
  14 C14            8.7225    -1.4265     0.0445 C.ar    
  15 C15           10.0360    -1.8465     0.0978 C.ar    
  16 C16           11.0639    -0.9316    -0.0432 C.ar    
  17 C17           10.7821     0.4086    -0.2384 C.ar    
  18 C18            9.4724     0.8393    -0.2992 C.ar    
  19 N19           -1.1256    -0.4176    -1.1986 N.pl3   
  20 O20           -2.1871     0.1784    -1.1597 O.2     
  21 O21           -1.0509    -1.4919    -1.7677 O.2     
  22 H22           -0.9531     1.9123     0.1208 H       
  23 H23            1.3430    -1.4660    -1.1027 H       
  24 H24            3.1843     1.6854     1.1270 H       
  25 H25            1.0354     2.8823     1.1990 H       
  26 H26            3.6360    -1.6183     0.0136 H       
  27 H27            7.3856     2.4887    -0.5227 H       
  28 H28            7.9208    -2.1416     0.1550 H       
  29 H29           10.2618    -2.8916     0.2503 H       
  30 H30           12.0903    -1.2648    -0.0005 H       
  31 H31           11.5885     1.1186    -0.3475 H       
  32 H32            9.2535     1.8859    -0.4519 H       
@<TRIPOS>BOND
   1    1    2 ar
   2    1    6 ar
   3    1   22 1
   4    2    3 ar
   5    2   19 1
   6    3    4 ar
   7    3   23 1
   8    4    5 ar
   9    4    7 1
  10    5    6 ar
  11    5   24 1
  12    6   25 1
  13    7    8 1
  14    7   26 1
  15    8    9 2
  16    8   12 1
  17    9   10 1
  18   10   11 2
  19   10   13 1
  20   11   12 1
  21   11   27 1
  22   13   14 ar
  23   13   18 ar
  24   14   15 ar
  25   14   28 1
  26   15   16 ar
  27   15   29 1
  28   16   17 ar
  29   16   30 1
  30   17   18 ar
  31   17   31 1
  32   18   32 1
  33   19   20 2
  34   19   21 2

#	End of record

