#	Name: ASD01120209
#	Creating user name:	WinNT
#	Creation time:	15. 06. 2019 18:59

#	Modifying user name:	WinNT
#	Modification time:	15. 06. 2019 18:59

#	Program:	/corina/corina34_cracker 3.40 0067  02.08.2006

@<TRIPOS>MOLECULE
ASD01120209
  29   31    0    0    0
SMALL
NO_CHARGES


@<TRIPOS>ATOM
   1 C1            -0.1471     0.6851     0.7988 C.ar    
   2 C2            -0.2689    -0.6950     0.7391 C.ar    
   3 C3            -1.5078    -1.2816     0.5744 C.ar    
   4 C4            -2.6386    -0.4890     0.4682 C.ar    
   5 C5            -2.5205     0.9079     0.5285 C.ar    
   6 C6            -1.2636     1.4884     0.6999 C.ar    
   7 O7            -3.9555    -0.7541     0.3055 O.3     
   8 C8            -4.6175     0.4156     0.2670 C.2     
   9 N9            -3.7787     1.4113     0.3982 N.2     
  10 N10           -5.9789     0.5465     0.1118 N.am    
  11 S11           -6.6828     2.0426     0.2049 S.o2    
  12 O12           -5.9288     2.8945    -0.6467 O.2     
  13 O13           -8.0814     1.8379     0.0587 O.2     
  14 C14           -6.4354     2.6343     1.8460 C.ar    
  15 C15           -7.0092     1.9694     2.9148 C.ar    
  16 C16           -6.8145     2.4338     4.2037 C.ar    
  17 C17           -6.0466     3.5613     4.4232 C.ar    
  18 C18           -5.4723     4.2262     3.3541 C.ar    
  19 C19           -5.6633     3.7594     2.0660 C.ar    
  20 Cl20          -7.9740     0.5528     2.6391 Cl      
  21 Cl21          -4.5075     5.6428     3.6299 Cl      
  22 Br22           1.5586     1.4696     1.0248 Br      
  23 H23            0.6114    -1.3152     0.8217 H       
  24 H24           -1.5951    -2.3571     0.5281 H       
  25 H25           -1.1645     2.5628     0.7477 H       
  26 H26           -6.5260    -0.2375    -0.0520 H       
  27 H27           -7.2631     1.9151     5.0381 H       
  28 H28           -5.8950     3.9240     5.4291 H       
  29 H29           -5.2148     4.2781     1.2316 H       
@<TRIPOS>BOND
   1    1    2 ar
   2    1   22 1
   3    1    6 ar
   4    2    3 ar
   5    2   23 1
   6    3    4 ar
   7    3   24 1
   8    4    5 ar
   9    4    7 1
  10    5    6 ar
  11    5    9 1
  12    6   25 1
  13    7    8 1
  14    8    9 2
  15    8   10 1
  16   10   11 am
  17   10   26 1
  18   11   12 2
  19   11   13 2
  20   11   14 1
  21   14   15 ar
  22   14   19 ar
  23   15   16 ar
  24   15   20 1
  25   16   17 ar
  26   16   27 1
  27   17   18 ar
  28   17   28 1
  29   18   19 ar
  30   18   21 1
  31   19   29 1

#	End of record

