#	Name: ASD02448147
#	Creating user name:	WinNT
#	Creation time:	15. 06. 2019 20:21

#	Modifying user name:	WinNT
#	Modification time:	15. 06. 2019 20:21

#	Program:	/corina/corina34_cracker 3.40 0067  02.08.2006

@<TRIPOS>MOLECULE
ASD02448147
  81   87    0    0    0
SMALL
NO_CHARGES


@<TRIPOS>ATOM
   1 C1             2.2374     1.4842    -0.6632 C.ar    
   2 C2             2.2405     0.1079    -0.5595 C.ar    
   3 C3             1.0939    -0.5603    -0.1512 C.ar    
   4 C4            -0.0560     0.1554     0.1524 C.ar    
   5 C5            -0.0600     1.5322     0.0490 C.ar    
   6 C6             1.0868     2.2010    -0.3590 C.ar    
   7 N7             1.0834     3.5952    -0.4635 N.am    
   8 C8             2.2293     4.5097    -0.3755 C.3     
   9 C9             1.8029     5.9328    -0.5406 C.2     
  10 N10            0.4877     6.1062    -0.7335 N.am    
  11 S11           -0.2223     4.6006    -0.7239 S.o2    
  12 O12            2.5857     6.8583    -0.5028 O.2     
  13 O13           -0.6960     4.3521    -2.0403 O.2     
  14 O14           -1.0362     4.5283     0.4386 O.2     
  15 N15            1.0975    -1.9599    -0.0459 N.pl3   
  16 C16            0.4632    -2.8384    -0.8825 C.2     
  17 C17            1.7360    -2.6947     0.9019 C.2     
  18 N18            1.5119    -3.9594     0.6770 N.2     
  19 C19            0.7309    -4.0857    -0.4150 C.2     
  20 C20            0.2494    -5.3605    -1.0017 C.ar    
  21 C21            0.6021    -6.5771    -0.4175 C.ar    
  22 C22           -0.5612    -5.3464    -2.1347 C.ar    
  23 C23           -1.0066    -6.5350    -2.6770 C.ar    
  24 C24           -0.6495    -7.7402    -2.0974 C.ar    
  25 C25            0.1510    -7.7605    -0.9680 C.ar    
  26 C26            1.6727    -1.7935     3.1910 C.ar    
  27 C27            1.4073    -2.7423     4.1620 C.ar    
  28 C28            1.1240    -0.5273     3.2858 C.ar    
  29 C29            0.3085    -0.2038     4.3512 C.ar    
  30 C30            0.0379    -1.1556     5.3322 C.ar    
  31 C31            0.5924    -2.4298     5.2312 C.ar    
  32 C32           -0.8378    -0.8134     6.4803 C.ar    
  33 Cl33          -1.2139    -9.2312    -2.7844 Cl      
  34 Cl34           1.6063    -6.6035     0.9983 Cl      
  35 C35            2.5678    -2.1388     2.0289 C.3     
  36 C36           -1.1085    -1.7652     7.4613 C.ar    
  37 C37           -1.9233    -1.4413     8.5272 C.ar    
  38 C38           -2.4708    -0.1747     8.6227 C.ar    
  39 C39           -2.2055     0.7740     7.6517 C.ar    
  40 C40           -1.3878     0.4626     6.5842 C.ar    
  41 C41           -3.3601     0.1728     9.7886 C.3     
  42 C42           -2.7480     1.3391    10.5670 C.3     
  43 C43           -3.6509     1.6919    11.7508 C.3     
  44 C44           -5.0344     2.0931    11.2351 C.3     
  45 C45           -5.6465     0.9268    10.4567 C.3     
  46 C46           -4.7436     0.5740     9.2730 C.3     
  47 C47           -1.3005    -0.5705     0.5946 C.3     
  48 F48           -2.2773     0.3607     0.9633 F       
  49 F49           -1.7801    -1.3575    -0.4579 F       
  50 F50           -0.9993    -1.3885     1.6889 F       
  51 H51            3.1306     2.0042    -0.9765 H       
  52 H52            3.1348    -0.4494    -0.7963 H       
  53 H53           -0.9549     2.0889     0.2849 H       
  54 H54            2.7071     4.3908     0.5970 H       
  55 H55            2.9468     4.2591    -1.1567 H       
  56 H56            0.0332     6.9539    -0.8588 H       
  57 H57           -0.1343    -2.5884    -1.7468 H       
  58 H58           -0.8409    -4.4068    -2.5879 H       
  59 H59           -1.6352    -6.5246    -3.5551 H       
  60 H60            0.4269    -8.7034    -0.5195 H       
  61 H61            1.8382    -3.7294     4.0831 H       
  62 H62            1.3345     0.2096     2.5249 H       
  63 H63           -0.1188     0.7854     4.4246 H       
  64 H64            0.3856    -3.1714     5.9886 H       
  65 H65            3.2992    -2.8838     2.3424 H       
  66 H66            3.0856    -1.2415     1.6900 H       
  67 H67           -0.6818    -2.7546     7.3875 H       
  68 H68           -2.1340    -2.1784     9.2879 H       
  69 H69           -2.6358     1.7614     7.7309 H       
  70 H70           -1.1812     1.2041     5.8267 H       
  71 H71           -3.4538    -0.6926    10.4447 H       
  72 H72           -1.7624     1.0533    10.9344 H       
  73 H73           -2.6543     2.2045     9.9109 H       
  74 H74           -3.7446     0.8265    12.4069 H       
  75 H75           -3.2148     2.5228    12.3053 H       
  76 H76           -5.6776     2.3445    12.0785 H       
  77 H77           -4.9407     2.9585    10.5790 H       
  78 H78           -5.7402     0.0615    11.1128 H       
  79 H79           -6.6321     1.2127    10.0894 H       
  80 H80           -4.6499     1.4394     8.6169 H       
  81 H81           -5.1797    -0.2569     8.7184 H       
@<TRIPOS>BOND
   1    1    2 ar
   2    1    6 ar
   3    1   51 1
   4    2    3 ar
   5    2   52 1
   6    3    4 ar
   7    3   15 1
   8    4    5 ar
   9    4   47 1
  10    5    6 ar
  11    5   53 1
  12    6    7 1
  13    7    8 1
  14    7   11 am
  15    8    9 1
  16    8   54 1
  17    8   55 1
  18    9   10 am
  19    9   12 2
  20   10   11 am
  21   10   56 1
  22   11   13 2
  23   11   14 2
  24   15   16 1
  25   15   17 1
  26   16   19 2
  27   16   57 1
  28   17   18 2
  29   17   35 1
  30   18   19 1
  31   19   20 1
  32   20   21 ar
  33   20   22 ar
  34   21   34 1
  35   21   25 ar
  36   22   23 ar
  37   22   58 1
  38   23   24 ar
  39   23   59 1
  40   24   25 ar
  41   24   33 1
  42   25   60 1
  43   26   27 ar
  44   26   28 ar
  45   26   35 1
  46   27   31 ar
  47   27   61 1
  48   28   29 ar
  49   28   62 1
  50   29   30 ar
  51   29   63 1
  52   30   31 ar
  53   30   32 1
  54   31   64 1
  55   32   36 ar
  56   32   40 ar
  57   35   65 1
  58   35   66 1
  59   36   37 ar
  60   36   67 1
  61   37   38 ar
  62   37   68 1
  63   38   39 ar
  64   38   41 1
  65   39   40 ar
  66   39   69 1
  67   40   70 1
  68   41   42 1
  69   41   46 1
  70   41   71 1
  71   42   43 1
  72   42   72 1
  73   42   73 1
  74   43   44 1
  75   43   74 1
  76   43   75 1
  77   44   45 1
  78   44   76 1
  79   44   77 1
  80   45   46 1
  81   45   78 1
  82   45   79 1
  83   46   80 1
  84   46   81 1
  85   47   48 1
  86   47   49 1
  87   47   50 1

#	End of record

