#	Name: ASD01140334
#	Creating user name:	WinNT
#	Creation time:	15. 06. 2019 19:00

#	Modifying user name:	WinNT
#	Modification time:	15. 06. 2019 19:00

#	Program:	/corina/corina34_cracker 3.40 0067  02.08.2006

@<TRIPOS>MOLECULE
ASD01140334
  58   62    0    0    0
SMALL
NO_CHARGES


@<TRIPOS>ATOM
   1 C1             0.0966     1.5709     0.2398 C.ar    
   2 C2             0.0467     0.1746     0.2332 C.ar    
   3 C3             1.2225    -0.5612     0.1544 C.ar    
   4 C4             2.4621     0.0871     0.0812 C.ar    
   5 C5             2.4943     1.4839     0.0650 C.ar    
   6 C6             1.3115     2.2127     0.1561 C.ar    
   7 C7             3.6699    -0.7458     0.0567 C.2     
   8 N8             4.7288    -0.5812    -0.6559 N.2     
   9 C9             4.8513     0.5238    -1.6140 C.3     
  10 C10            4.7484     1.8133    -0.8414 C.2     
  11 N11            3.6914     2.1911    -0.0749 N.pl3   
  12 C12            4.0057     3.3854     0.4943 C.2     
  13 C13            5.6727     2.8067    -0.7667 C.2     
  14 N14            5.1819     3.7563     0.0713 N.2     
  15 C15            3.6707    -1.9173     0.9619 C.ar    
  16 C16            3.6914    -3.2090     0.4360 C.ar    
  17 C17            3.6919    -4.2967     1.2845 C.ar    
  18 C18            3.6716    -4.1101     2.6555 C.ar    
  19 C19            3.6510    -2.8333     3.1857 C.ar    
  20 C20           -1.2156    -0.4976     0.3080 C.1     
  21 C21           -2.2504    -1.0487     0.3694 C.1     
  22 C22            6.9699     2.8463    -1.4672 C.2     
  23 N23            7.8750     3.8090    -1.4011 N.2     
  24 O24            7.4653     1.9097    -2.2918 O.3     
  25 N25            8.5551     2.2563    -2.6960 N.2     
  26 C26            8.8802     3.4122    -2.1965 C.2     
  27 C27           10.1558     4.1692    -2.4627 C.3     
  28 C28            9.9625     5.0847    -3.6732 C.3     
  29 C29            3.6564    -1.7339     2.3472 C.ar    
  30 F30            3.6420    -0.4864     2.8655 F       
  31 Si31          -3.9251    -1.9405     0.4686 Si      
  32 C32           -3.6503    -3.7829     0.4384 C.3     
  33 C33           -4.7879    -1.4672     2.0505 C.3     
  34 C34           -4.9792    -1.4459    -0.9857 C.3     
  35 H35           -0.8157     2.1451     0.3059 H       
  36 H36            1.1805    -1.6404     0.1499 H       
  37 H37            1.3475     3.2921     0.1612 H       
  38 H38            5.8166     0.4708    -2.1176 H       
  39 H39            4.0473     0.4674    -2.3477 H       
  40 H40            3.3830     3.9365     1.1834 H       
  41 H41            3.7066    -3.3574    -0.6336 H       
  42 H42            3.7080    -5.2970     0.8775 H       
  43 H43            3.6714    -4.9658     3.3145 H       
  44 H44            3.6351    -2.6944     4.2567 H       
  45 H45           10.4106     4.7701    -1.5897 H       
  46 H46           10.9614     3.4635    -2.6658 H       
  47 H47            9.7077     4.4838    -4.5462 H       
  48 H48            9.1569     5.7903    -3.4701 H       
  49 H49           10.8852     5.6322    -3.8657 H       
  50 H50           -3.0336    -4.0723     1.2893 H       
  51 H51           -4.6111    -4.2945     0.4954 H       
  52 H52           -3.1455    -4.0598    -0.4871 H       
  53 H53           -4.9487    -0.3893     2.0682 H       
  54 H54           -5.7487    -1.9789     2.1075 H       
  55 H55           -4.1712    -1.7566     2.9014 H       
  56 H56           -4.4744    -1.7229    -1.9112 H       
  57 H57           -5.9400    -1.9576    -0.9287 H       
  58 H58           -5.1400    -0.3680    -0.9680 H       
@<TRIPOS>BOND
   1    1    2 ar
   2    1    6 ar
   3    1   35 1
   4    2    3 ar
   5    2   20 1
   6    3    4 ar
   7    3   36 1
   8    4    5 ar
   9    4    7 1
  10    5    6 ar
  11    5   11 1
  12    6   37 1
  13    7    8 2
  14    7   15 1
  15    8    9 1
  16    9   10 1
  17    9   38 1
  18    9   39 1
  19   10   11 1
  20   10   13 2
  21   11   12 1
  22   12   14 2
  23   12   40 1
  24   13   14 1
  25   13   22 1
  26   15   29 ar
  27   15   16 ar
  28   16   17 ar
  29   16   41 1
  30   17   18 ar
  31   17   42 1
  32   18   19 ar
  33   18   43 1
  34   19   29 ar
  35   19   44 1
  36   20   21 3
  37   21   31 1
  38   22   23 2
  39   22   24 1
  40   23   26 1
  41   24   25 1
  42   25   26 2
  43   26   27 1
  44   27   28 1
  45   27   45 1
  46   27   46 1
  47   28   47 1
  48   28   48 1
  49   28   49 1
  50   29   30 1
  51   31   32 1
  52   31   33 1
  53   31   34 1
  54   32   50 1
  55   32   51 1
  56   32   52 1
  57   33   53 1
  58   33   54 1
  59   33   55 1
  60   34   56 1
  61   34   57 1
  62   34   58 1

#	End of record

