#	Name: ASD01510009
#	Creating user name:	WinNT
#	Creation time:	15. 06. 2019 19:21

#	Modifying user name:	WinNT
#	Modification time:	15. 06. 2019 19:21

#	Program:	/corina/corina34_cracker 3.40 0067  02.08.2006

@<TRIPOS>MOLECULE
ASD01510009
  70   74    0    0    0
SMALL
NO_CHARGES


@<TRIPOS>ATOM
   1 C1             0.8374     0.9353    -1.0905 C.3     
   2 O2             1.0779    -0.4717    -1.0225 O.3     
   3 C3             1.4596    -0.9749     0.1806 C.ar    
   4 C4             1.7092    -2.3345     0.3147 C.ar    
   5 C5             2.0970    -2.8492     1.5329 C.ar    
   6 C6             2.2390    -2.0009     2.6341 C.ar    
   7 C7             1.9868    -0.6338     2.4945 C.ar    
   8 C8             1.6046    -0.1271     1.2710 C.ar    
   9 C9             2.6535    -2.5474     3.9408 C.2     
  10 N10            3.7219    -2.1367     4.7046 N.pl3   
  11 C11            4.6681    -1.0684     4.3736 C.3     
  12 C12            5.7047    -1.5948     3.4148 C.ar    
  13 C13            5.3993    -1.7209     2.0713 C.ar    
  14 C14            6.3439    -2.2017     1.1882 C.ar    
  15 C15            7.6100    -2.5611     1.6528 C.ar    
  16 C16            7.9117    -2.4314     3.0094 C.ar    
  17 C17            6.9597    -1.9443     3.8810 C.ar    
  18 C18            8.6270    -3.0775     0.7121 C.2     
  19 O19            8.3614    -3.1898    -0.4687 O.2     
  20 N20            9.8487    -3.4237     1.1639 N.am    
  21 C21            3.7345    -2.9114     5.8292 C.2     
  22 N22            2.7337    -3.7605     5.7784 N.2     
  23 C23            2.0408    -3.5713     4.6440 C.2     
  24 C24            0.8418    -4.3293     4.2162 C.ar    
  25 C25            0.7294    -5.6869     4.5156 C.ar    
  26 C26           -0.3880    -6.3892     4.1158 C.ar    
  27 C27           -1.4000    -5.7467     3.4156 C.ar    
  28 C28           -1.2915    -4.3955     3.1158 C.ar    
  29 C29           -0.1798    -3.6855     3.5180 C.ar    
  30 O30           -2.4994    -6.4421     3.0223 O.3     
  31 C31           -3.5024    -5.7192     2.3057 C.3     
  32 C32            4.7177    -2.8103     6.9285 C.ar    
  33 C33            4.4637    -3.4266     8.1549 C.ar    
  34 C34            5.3855    -3.3283     9.1767 C.ar    
  35 C35            6.5592    -2.6205     8.9879 C.ar    
  36 C36            6.8171    -2.0073     7.7747 C.ar    
  37 C37            5.9066    -2.1030     6.7427 C.ar    
  38 C38            8.0982    -1.2384     7.5782 C.3     
  39 F39            8.8565    -1.2877     8.7529 F       
  40 F40            8.8272    -1.8074     6.5284 F       
  41 F41            7.8003     0.0935     7.2709 F       
  42 C42            5.1130    -3.9930    10.5015 C.3     
  43 F43            5.6212    -5.2963    10.4825 F       
  44 F44            5.7320    -3.2660    11.5240 F       
  45 F45            3.7331    -4.0337    10.7277 F       
  46 H46            1.7474     1.4727    -0.8236 H       
  47 H47            0.5404     1.2046    -2.1041 H       
  48 H48            0.0411     1.2017    -0.3956 H       
  49 H49            1.5989    -2.9894    -0.5369 H       
  50 H50            2.2905    -3.9067     1.6364 H       
  51 H51            2.0949     0.0255     3.3430 H       
  52 H52            1.4098     0.9296     1.1621 H       
  53 H53            4.1327    -0.2394     3.9107 H       
  54 H54            5.1576    -0.7218     5.2837 H       
  55 H55            4.4191    -1.4428     1.7131 H       
  56 H56            6.1041    -2.3000     0.1397 H       
  57 H57            8.8895    -2.7078     3.3752 H       
  58 H58            7.1917    -1.8434     4.9309 H       
  59 H59           10.0607    -3.3341     2.1062 H       
  60 H60           10.5160    -3.7625     0.5468 H       
  61 H61            1.5166    -6.1875     5.0596 H       
  62 H62           -0.4757    -7.4405     4.3473 H       
  63 H63           -2.0805    -3.8989     2.5707 H       
  64 H64           -0.0961    -2.6343     3.2848 H       
  65 H65           -4.3229    -6.3905     2.0524 H       
  66 H66           -3.8771    -4.9055     2.9267 H       
  67 H67           -3.0721    -5.3101     1.3916 H       
  68 H68            3.5476    -3.9787     8.3038 H       
  69 H69            7.2772    -2.5460     9.7913 H       
  70 H70            6.1092    -1.6242     5.7961 H       
@<TRIPOS>BOND
   1    1    2 1
   2    1   46 1
   3    1   47 1
   4    1   48 1
   5    2    3 1
   6    3    4 ar
   7    3    8 ar
   8    4    5 ar
   9    4   49 1
  10    5    6 ar
  11    5   50 1
  12    6    7 ar
  13    6    9 1
  14    7    8 ar
  15    7   51 1
  16    8   52 1
  17    9   10 1
  18    9   23 2
  19   10   11 1
  20   10   21 1
  21   11   12 1
  22   11   53 1
  23   11   54 1
  24   12   13 ar
  25   12   17 ar
  26   13   14 ar
  27   13   55 1
  28   14   15 ar
  29   14   56 1
  30   15   16 ar
  31   15   18 1
  32   16   17 ar
  33   16   57 1
  34   17   58 1
  35   18   19 2
  36   18   20 am
  37   20   59 1
  38   20   60 1
  39   21   22 2
  40   21   32 1
  41   22   23 1
  42   23   24 1
  43   24   25 ar
  44   24   29 ar
  45   25   26 ar
  46   25   61 1
  47   26   27 ar
  48   26   62 1
  49   27   28 ar
  50   27   30 1
  51   28   29 ar
  52   28   63 1
  53   29   64 1
  54   30   31 1
  55   31   65 1
  56   31   66 1
  57   31   67 1
  58   32   33 ar
  59   32   37 ar
  60   33   34 ar
  61   33   68 1
  62   34   35 ar
  63   34   42 1
  64   35   36 ar
  65   35   69 1
  66   36   37 ar
  67   36   38 1
  68   37   70 1
  69   38   39 1
  70   38   40 1
  71   38   41 1
  72   42   43 1
  73   42   44 1
  74   42   45 1

#	End of record

