#	Name: ASD01883617
#	Creating user name:	WinNT
#	Creation time:	15. 06. 2019 19:46

#	Modifying user name:	WinNT
#	Modification time:	15. 06. 2019 19:46

#	Program:	/corina/corina34_cracker 3.40 0067  02.08.2006

@<TRIPOS>MOLECULE
ASD01883617
  51   55    0    0    0
SMALL
NO_CHARGES


@<TRIPOS>ATOM
   1 C1            -0.5932     0.4944    -1.2994 C.2     
   2 C2            -0.3262    -0.4722    -0.3209 C.2     
   3 C3            -1.1896    -0.5822     0.7846 C.2     
   4 C4            -2.2605     0.2247     0.9113 C.2     
   5 N5            -2.5579     1.1784    -0.0161 N.pl3   
   6 C6            -1.7646     1.3547    -1.1201 C.2     
   7 C7            -3.5771     2.1057    -0.1067 C.2     
   8 C8            -3.3718     2.8053    -1.2587 C.2     
   9 N9            -2.2732     2.3337    -1.8496 N.2     
  10 N10            0.7693    -1.3062    -0.4402 N.pl3   
  11 C11           -4.6782     2.3013     0.8583 C.ar    
  12 C12           -5.0494     1.2657     1.7184 C.ar    
  13 C13           -6.0782     1.4554     2.6174 C.ar    
  14 C14           -6.7423     2.6683     2.6679 C.ar    
  15 C15           -6.3800     3.6987     1.8182 C.ar    
  16 C16           -5.3489     3.5247     0.9186 C.ar    
  17 C17            0.5930    -2.7576    -0.5855 C.3     
  18 C18            1.4229    -3.4652     0.4902 C.3     
  19 C19            2.8768    -2.9963     0.3978 C.3     
  20 C20            2.9452    -1.4882     0.6493 C.3     
  21 C21            2.1323    -0.7576    -0.4303 C.3     
  22 C22            3.7031    -3.7158     1.4325 C.ar    
  23 C23            4.7688    -4.5039     1.0401 C.ar    
  24 C24            5.5268    -5.1639     1.9892 C.ar    
  25 C25            5.2193    -5.0355     3.3307 C.ar    
  26 C26            4.1541    -4.2466     3.7232 C.ar    
  27 C27            3.3988    -3.5831     2.7744 C.ar    
  28 C28            0.2594     0.6411    -2.4405 C.1     
  29 N29            0.9359     0.7575    -3.3457 N.1     
  30 H30           -0.9907    -1.3251     1.5428 H       
  31 H31           -2.9024     0.1126     1.7726 H       
  32 H32           -3.9925     3.6078    -1.6289 H       
  33 H33           -4.5324     0.3183     1.6796 H       
  34 H34           -6.3663     0.6553     3.2832 H       
  35 H35           -7.5473     2.8114     3.3735 H       
  36 H36           -6.9030     4.6425     1.8624 H       
  37 H37           -5.0671     4.3297     0.2560 H       
  38 H38           -0.4595    -3.0120    -0.4613 H       
  39 H39            0.9324    -3.0698    -1.5732 H       
  40 H40            1.0244    -3.2227     1.4753 H       
  41 H41            1.3777    -4.5430     0.3342 H       
  42 H42            3.2670    -3.2168    -0.5958 H       
  43 H43            2.5323    -1.2644     1.6329 H       
  44 H44            3.9833    -1.1590     0.6065 H       
  45 H45            2.5995    -0.9077    -1.4036 H       
  46 H46            2.0946     0.3074    -0.2011 H       
  47 H47            5.0091    -4.6042    -0.0081 H       
  48 H48            6.3590    -5.7802     1.6825 H       
  49 H49            5.8110    -5.5517     4.0722 H       
  50 H50            3.9136    -4.1465     4.7714 H       
  51 H51            2.5666    -2.9668     3.0810 H       
@<TRIPOS>BOND
   1    1    2 2
   2    1   28 1
   3    1    6 1
   4    2    3 1
   5    2   10 1
   6    3    4 2
   7    3   30 1
   8    4    5 1
   9    4   31 1
  10    5    6 1
  11    5    7 1
  12    6    9 2
  13    7    8 2
  14    7   11 1
  15    8    9 1
  16    8   32 1
  17   10   17 1
  18   10   21 1
  19   11   12 ar
  20   11   16 ar
  21   12   13 ar
  22   12   33 1
  23   13   14 ar
  24   13   34 1
  25   14   15 ar
  26   14   35 1
  27   15   16 ar
  28   15   36 1
  29   16   37 1
  30   17   18 1
  31   17   38 1
  32   17   39 1
  33   18   19 1
  34   18   40 1
  35   18   41 1
  36   19   20 1
  37   19   22 1
  38   19   42 1
  39   20   21 1
  40   20   43 1
  41   20   44 1
  42   21   45 1
  43   21   46 1
  44   22   23 ar
  45   22   27 ar
  46   23   24 ar
  47   23   47 1
  48   24   25 ar
  49   24   48 1
  50   25   26 ar
  51   25   49 1
  52   26   27 ar
  53   26   50 1
  54   27   51 1
  55   28   29 3

#	End of record

