#	Name: ASD01948303
#	Creating user name:	WinNT
#	Creation time:	15. 06. 2019 20:14

#	Modifying user name:	WinNT
#	Modification time:	15. 06. 2019 20:14

#	Program:	/corina/corina34_cracker 3.40 0067  02.08.2006

@<TRIPOS>MOLECULE
ASD01948303
  43   44    0    0    0
SMALL
NO_CHARGES


@<TRIPOS>ATOM
   1 C1            -0.0492     1.5930     0.2124 C.2     
   2 N2            -0.1218     0.2313     0.1676 N.am    
   3 C3             0.9890    -0.5211     0.0632 C.2     
   4 C4             2.3360     1.4672     0.0419 C.2     
   5 C5             1.1462     2.2255     0.1524 C.2     
   6 C6             2.9506     3.1295    -2.1133 C.ar    
   7 C7             3.8518     2.9805    -1.0664 C.ar    
   8 N8             3.5701     2.0976    -0.0204 N.pl3   
   9 C9             3.2320     4.0023    -3.1455 C.ar    
  10 C10            4.4102     4.7278    -3.1383 C.ar    
  11 C11            5.3091     4.5820    -2.0972 C.ar    
  12 C12            5.0334     3.7106    -1.0617 C.ar    
  13 N13            1.2053     3.6279     0.1993 N.am    
  14 S14           -0.1893     4.5116     0.3286 S.o2    
  15 N15           -0.8599     4.1564     1.8005 N.am    
  16 O16            0.8977    -1.7392     0.0254 O.2     
  17 C17           -1.4310    -0.4227     0.2347 C.3     
  18 C18            6.0136     3.5520     0.0719 C.3     
  19 I19            4.8330     6.0504    -4.7070 I       
  20 C20           -0.5043     4.9514     2.9785 C.3     
  21 C21           -1.8087     3.0471     1.9246 C.3     
  22 O22            0.2040     5.8759     0.3856 O.2     
  23 O23           -1.0809     4.0001    -0.6525 O.2     
  24 C24            2.2487     0.0860    -0.0026 C.2     
  25 F25            3.3657    -0.6666    -0.1075 F       
  26 H26           -0.9565     2.1733     0.2922 H       
  27 H27            2.0331     2.5599    -2.1220 H       
  28 H28            4.2376     1.9255     0.6621 H       
  29 H29            2.5319     4.1186    -3.9596 H       
  30 H30            6.2280     5.1495    -2.0945 H       
  31 H31            2.0630     4.0789     0.1558 H       
  32 H32           -1.8269    -0.5474    -0.7731 H       
  33 H33           -1.3254    -1.3994     0.7070 H       
  34 H34           -2.1146     0.1920     0.8202 H       
  35 H35            5.7802     4.2708     0.8573 H       
  36 H36            5.9450     2.5407     0.4728 H       
  37 H37            7.0247     3.7297    -0.2945 H       
  38 H38           -1.1932     5.7910     3.0717 H       
  39 H39           -0.5685     4.3281     3.8704 H       
  40 H40            0.5133     5.3267     2.8700 H       
  41 H41           -1.2670     2.1296     2.1544 H       
  42 H42           -2.5160     3.2619     2.7258 H       
  43 H43           -2.3492     2.9246     0.9860 H       
@<TRIPOS>BOND
   1    1    2 1
   2    1    5 2
   3    1   26 1
   4    2    3 am
   5    2   17 1
   6    3   24 1
   7    3   16 2
   8    4    5 1
   9    4    8 1
  10    4   24 2
  11    5   13 1
  12    6    7 ar
  13    6    9 ar
  14    6   27 1
  15    7    8 1
  16    7   12 ar
  17    8   28 1
  18    9   10 ar
  19    9   29 1
  20   10   11 ar
  21   10   19 1
  22   11   12 ar
  23   11   30 1
  24   12   18 1
  25   13   14 am
  26   13   31 1
  27   14   15 am
  28   14   22 2
  29   14   23 2
  30   15   20 1
  31   15   21 1
  32   17   32 1
  33   17   33 1
  34   17   34 1
  35   18   35 1
  36   18   36 1
  37   18   37 1
  38   20   38 1
  39   20   39 1
  40   20   40 1
  41   21   41 1
  42   21   42 1
  43   21   43 1
  44   24   25 1

#	End of record

