#	Name: ASD09116090
#	Creating user name:	WinNT
#	Creation time:	15. 06. 2019 21:20

#	Modifying user name:	WinNT
#	Modification time:	15. 06. 2019 21:20

#	Program:	/corina/corina34_cracker 3.40 0067  02.08.2006

@<TRIPOS>MOLECULE
ASD09116090
  63   68    0    0    0
SMALL
NO_CHARGES


@<TRIPOS>ATOM
   1 C1             4.6584    -0.4262     0.9755 C.ar    
   2 N2             3.7987    -1.5063     0.7893 N.pl3   
   3 N3             2.5042    -1.4683     0.2462 N.2     
   4 C4             2.0501    -2.6984     0.2514 C.2     
   5 N5             2.9826    -3.5086     0.7659 N.2     
   6 C6             4.0480    -2.8085     1.0917 C.2     
   7 N7             5.2097    -3.3064     1.6494 N.pl3   
   8 N8             0.7947    -3.0987    -0.2060 N.pl3   
   9 C9             4.2653     0.8691     0.6085 C.ar    
  10 N10            5.8604    -0.6052     1.5080 N.ar    
  11 C11            6.6800     0.4164     1.6873 C.ar    
  12 N12            6.3597     1.6435     1.3564 N.ar    
  13 C13            5.1557     1.9280     0.8113 C.ar    
  14 C14            0.4658    -4.4565    -0.2464 C.ar    
  15 C15           -0.8530    -4.8665    -0.0945 C.ar    
  16 N16           -1.1716    -6.1467    -0.1242 N.ar    
  17 C17           -0.2583    -7.0766    -0.2961 C.ar    
  18 C18            1.0766    -6.7450    -0.4677 C.ar    
  19 C19            1.4564    -5.4182    -0.4454 C.ar    
  20 C20           -0.6072    -8.5421    -0.3000 C.3     
  21 C21           -0.7798    -9.0849    -1.6819 C.3     
  22 C22            0.4647    -9.4141    -2.4825 C.3     
  23 C23            1.1287    -8.1237    -2.9966 C.3     
  24 C24            2.4293    -7.9019    -2.1770 C.3     
  25 C25            2.0733    -7.8484    -0.6924 C.3     
  26 Cl26           8.2403     0.1213     2.3887 Cl      
  27 C27            4.6282     3.1602     0.3941 C.2     
  28 C28            3.4037     3.1223    -0.1069 C.2     
  29 S29            2.7796     1.4813    -0.1032 S.3     
  30 C30            5.4069     4.4452     0.5099 C.3     
  31 N31            1.4564    -8.2660    -4.4214 N.3     
  32 C32            0.2344    -8.4209    -5.2318 C.3     
  33 C33            0.2415    -7.2971    -6.2893 C.3     
  34 C34            1.7422    -6.9151    -6.3832 C.3     
  35 C35            2.2016    -7.0879    -4.9140 C.3     
  36 H36            5.2906    -4.2549     1.8353 H       
  37 H37            5.9444    -2.7074     1.8551 H       
  38 H38            0.1498    -2.4346    -0.4961 H       
  39 H39           -1.6275    -4.1278     0.0502 H       
  40 H40            2.4907    -5.1337    -0.5701 H       
  41 H41            0.1881    -9.0954     0.1994 H       
  42 H42           -1.5352    -8.6853     0.2536 H       
  43 H43           -1.3769    -9.9939    -1.6087 H       
  44 H44           -1.3588    -8.3591    -2.2530 H       
  45 H45            1.1685    -9.9542    -1.8492 H       
  46 H46            0.1921   -10.0420    -3.3308 H       
  47 H47            0.4541    -7.2793    -2.8545 H       
  48 H48            3.1198    -8.7257    -2.3576 H       
  49 H49            2.8933    -6.9618    -2.4754 H       
  50 H50            2.9725    -7.6522    -0.1085 H       
  51 H51            1.6387    -8.8003    -0.3870 H       
  52 H52            2.8626     3.9836    -0.4700 H       
  53 H53            5.9839     4.6038    -0.4011 H       
  54 H54            4.7166     5.2768     0.6522 H       
  55 H55            6.0833     4.3846     1.3625 H       
  56 H56            0.2368    -9.3934    -5.7241 H       
  57 H57           -0.6463    -8.3267    -4.5964 H       
  58 H58           -0.1227    -7.6674    -7.2476 H       
  59 H59           -0.3522    -6.4472    -5.9525 H       
  60 H60            2.2783    -7.5975    -7.0428 H       
  61 H61            1.8624    -5.8825    -6.7110 H       
  62 H62            1.9443    -6.2045    -4.3295 H       
  63 H63            3.2750    -7.2728    -4.8713 H       
@<TRIPOS>BOND
   1    1    2 1
   2    1    9 ar
   3    1   10 ar
   4    2    3 1
   5    2    6 1
   6    3    4 2
   7    4    5 1
   8    4    8 1
   9    5    6 2
  10    6    7 1
  11    7   36 1
  12    7   37 1
  13    8   14 1
  14    8   38 1
  15    9   13 ar
  16    9   29 1
  17   10   11 ar
  18   11   12 ar
  19   11   26 1
  20   12   13 ar
  21   13   27 1
  22   14   15 ar
  23   14   19 ar
  24   15   16 ar
  25   15   39 1
  26   16   17 ar
  27   17   18 ar
  28   17   20 1
  29   18   19 ar
  30   18   25 1
  31   19   40 1
  32   20   21 1
  33   20   41 1
  34   20   42 1
  35   21   22 1
  36   21   43 1
  37   21   44 1
  38   22   23 1
  39   22   45 1
  40   22   46 1
  41   23   24 1
  42   23   31 1
  43   23   47 1
  44   24   25 1
  45   24   48 1
  46   24   49 1
  47   25   50 1
  48   25   51 1
  49   27   28 2
  50   27   30 1
  51   28   29 1
  52   28   52 1
  53   30   53 1
  54   30   54 1
  55   30   55 1
  56   31   32 1
  57   31   35 1
  58   32   33 1
  59   32   56 1
  60   32   57 1
  61   33   34 1
  62   33   58 1
  63   33   59 1
  64   34   35 1
  65   34   60 1
  66   34   61 1
  67   35   62 1
  68   35   63 1

#	End of record

