#	Name: ASD02500368
#	Creating user name:	WinNT
#	Creation time:	15. 06. 2019 20:22

#	Modifying user name:	WinNT
#	Modification time:	15. 06. 2019 20:22

#	Program:	/corina/corina34_cracker 3.40 0067  02.08.2006

@<TRIPOS>MOLECULE
ASD02500368
  62   66    0    0    0
SMALL
NO_CHARGES


@<TRIPOS>ATOM
   1 N1             1.6963     3.9705    -0.8818 N.ar    
   2 C2             2.5964     3.6534     0.0168 C.ar    
   3 C3             3.7420     2.9331    -0.3152 C.ar    
   4 C4             3.9487     2.5384    -1.6062 C.ar    
   5 C5             2.9797     2.8803    -2.5685 C.ar    
   6 C6             3.1237     2.5097    -3.9149 C.ar    
   7 C7             2.1643     2.8598    -4.8156 C.ar    
   8 C8             1.0409     3.5819    -4.4189 C.ar    
   9 C9             0.8693     3.9575    -3.1220 C.ar    
  10 C10            1.8378     3.6148    -2.1627 C.ar    
  11 S11           -0.5609     4.8709    -2.6476 S.o2    
  12 O12           -0.0968     5.9732    -1.8803 O.2     
  13 O13           -1.3504     5.0175    -3.8200 O.2     
  14 N14           -1.4323     3.9151    -1.6135 N.am    
  15 C15           -1.9472     2.7015    -2.0557 C.ar    
  16 C16           -1.7951     1.5574    -1.2773 C.ar    
  17 C17           -2.3036     0.3549    -1.7122 C.ar    
  18 C18           -2.9733     0.2830    -2.9371 C.ar    
  19 C19           -3.1244     1.4336    -3.7165 C.ar    
  20 C20           -2.6186     2.6343    -3.2734 C.ar    
  21 C21           -3.5192    -1.0046    -3.4065 C.2     
  22 O22           -4.6020    -1.0409    -3.9586 O.2     
  23 N23           -2.8177    -2.1408    -3.2235 N.am    
  24 C24           -3.3051    -3.4228    -3.7548 C.3     
  25 C25           -2.1758    -4.0783    -4.5567 C.3     
  26 N26           -0.9734    -4.1704    -3.7178 N.3     
  27 C27           -0.4845    -2.8380    -3.3391 C.3     
  28 C28           -1.5415    -2.1306    -2.4925 C.3     
  29 C29            0.0784    -4.9461    -4.3886 C.3     
  30 C30           -0.3704    -6.3770    -4.5378 C.ar    
  31 C31           -0.3894    -7.2139    -3.4359 C.ar    
  32 C32           -0.8014    -8.5278    -3.5699 C.ar    
  33 C33           -1.1946    -9.0071    -4.8057 C.ar    
  34 C34           -1.1760    -8.1686    -5.9117 C.ar    
  35 C35           -0.7679    -6.8503    -5.7733 C.ar    
  36 O36           -1.5617    -8.6377    -7.1280 O.3     
  37 Cl37          -1.7105   -10.6561    -4.9740 Cl      
  38 Cl38           0.1049    -6.6145    -1.8835 Cl      
  39 H39            2.4463     3.9589     1.0418 H       
  40 H40            4.4661     2.6875     0.4476 H       
  41 H41            4.8312     1.9798    -1.8813 H       
  42 H42            3.9906     1.9504    -4.2346 H       
  43 H43            2.2760     2.5743    -5.8512 H       
  44 H44            0.2942     3.8482    -5.1524 H       
  45 H45           -1.5835     4.2017    -0.6993 H       
  46 H46           -1.2773     1.6136    -0.3312 H       
  47 H47           -2.1850    -0.5324    -1.1080 H       
  48 H48           -3.6410     1.3811    -4.6635 H       
  49 H49           -2.7391     3.5245    -3.8729 H       
  50 H50           -3.5948    -4.0744    -2.9304 H       
  51 H51           -4.1621    -3.2475    -4.4052 H       
  52 H52           -2.4815    -5.0780    -4.8652 H       
  53 H53           -1.9586    -3.4756    -5.4386 H       
  54 H54            0.4363    -2.9382    -2.7645 H       
  55 H55           -0.2909    -2.2526    -4.2379 H       
  56 H56           -1.2330    -1.1014    -2.3088 H       
  57 H57           -1.6583    -2.6556    -1.5445 H       
  58 H58            0.2710    -4.5212    -5.3736 H       
  59 H59            0.9908    -4.9117    -3.7933 H       
  60 H60           -0.8156    -9.1795    -2.7088 H       
  61 H61           -0.7570    -6.1951    -6.6318 H       
  62 H62           -2.5054    -8.5304    -7.3097 H       
@<TRIPOS>BOND
   1    1    2 ar
   2    1   10 ar
   3    2    3 ar
   4    2   39 1
   5    3    4 ar
   6    3   40 1
   7    4    5 ar
   8    4   41 1
   9    5    6 ar
  10    5   10 ar
  11    6    7 ar
  12    6   42 1
  13    7    8 ar
  14    7   43 1
  15    8    9 ar
  16    8   44 1
  17    9   10 ar
  18    9   11 1
  19   11   12 2
  20   11   13 2
  21   11   14 am
  22   14   15 1
  23   14   45 1
  24   15   16 ar
  25   15   20 ar
  26   16   17 ar
  27   16   46 1
  28   17   18 ar
  29   17   47 1
  30   18   19 ar
  31   18   21 1
  32   19   20 ar
  33   19   48 1
  34   20   49 1
  35   21   22 2
  36   21   23 am
  37   23   24 1
  38   23   28 1
  39   24   25 1
  40   24   50 1
  41   24   51 1
  42   25   26 1
  43   25   52 1
  44   25   53 1
  45   26   27 1
  46   26   29 1
  47   27   28 1
  48   27   54 1
  49   27   55 1
  50   28   56 1
  51   28   57 1
  52   29   30 1
  53   29   58 1
  54   29   59 1
  55   30   31 ar
  56   30   35 ar
  57   31   32 ar
  58   31   38 1
  59   32   33 ar
  60   32   60 1
  61   33   34 ar
  62   33   37 1
  63   34   35 ar
  64   34   36 1
  65   35   61 1
  66   36   62 1

#	End of record

