#	Name: ASD07930221
#	Creating user name:	WinNT
#	Creation time:	15. 06. 2019 21:11

#	Modifying user name:	WinNT
#	Modification time:	15. 06. 2019 21:11

#	Program:	/corina/corina34_cracker 3.40 0067  02.08.2006

@<TRIPOS>MOLECULE
ASD07930221
  58   62    0    0    0
SMALL
NO_CHARGES


@<TRIPOS>ATOM
   1 C1             1.3087    -0.1004    -1.7084 C.2     
   2 C2             1.8399    -1.3604    -1.7491 C.2     
   3 C3             3.2292    -1.5553    -1.3273 C.2     
   4 N4             3.9452    -0.4965    -0.9106 N.am    
   5 C5             3.3885     0.7621    -0.8806 C.2     
   6 C6             2.1001     0.9676    -1.2678 C.2     
   7 C7             5.3390    -0.6577    -0.4749 C.3     
   8 C8             6.1463     0.5335    -1.0120 C.3     
   9 N9             5.5692     1.7712    -0.4685 N.am    
  10 C10            4.2213     1.8946    -0.4187 C.2     
  11 C11            6.4357     2.8511     0.0104 C.3     
  12 O12            3.7064     2.9146    -0.0032 O.2     
  13 O13            3.7309    -2.6663    -1.3536 O.2     
  14 N14            1.0705    -2.4428    -2.1849 N.pl3   
  15 C15            1.2884    -3.1935    -3.2966 C.2     
  16 N16            0.3612    -4.1092    -3.3678 N.2     
  17 C17           -0.4706    -3.9820    -2.3231 C.2     
  18 C18           -0.0437    -2.9519    -1.5683 C.2     
  19 C19           -1.6721    -4.8465    -2.0398 C.3     
  20 C20            6.7418     3.8088    -1.1429 C.3     
  21 O21            5.5356     4.4499    -1.5627 O.3     
  22 C22            5.6332     5.3385    -2.5862 C.ar    
  23 C23            4.5019     5.9966    -3.0439 C.ar    
  24 C24            6.8660     5.5921    -3.1704 C.ar    
  25 C25            6.9661     6.4960    -4.2110 C.ar    
  26 C26            5.8396     7.1492    -4.6724 C.ar    
  27 C27            4.6048     6.9029    -4.0880 C.ar    
  28 O28            3.4970     7.5453    -4.5425 O.3     
  29 C29            3.6239     8.3376    -5.6391 C.ar    
  30 C30            3.4599     7.7998    -6.9077 C.ar    
  31 C31            3.9120     9.6869    -5.4922 C.ar    
  32 C32            4.0400    10.4902    -6.6087 C.ar    
  33 C33            3.8808     9.9508    -7.8718 C.ar    
  34 C34            3.5889     8.6075    -8.0209 C.ar    
  35 H35            0.2882     0.0701    -2.0181 H       
  36 H36            1.6841     1.9637    -1.2350 H       
  37 H37            5.3850    -0.6728     0.6140 H       
  38 H38            5.7444    -1.5874    -0.8742 H       
  39 H39            7.1855     0.4441    -0.6954 H       
  40 H40            6.0923     0.5515    -2.1005 H       
  41 H41            5.9313     3.3943     0.8096 H       
  42 H42            7.3666     2.4292     0.3891 H       
  43 H43            2.0935    -3.0551    -4.0031 H       
  44 H44           -0.4960    -2.5913    -0.6563 H       
  45 H45           -1.3725    -5.6945    -1.4240 H       
  46 H46           -2.4243    -4.2612    -1.5110 H       
  47 H47           -2.0884    -5.2091    -2.9797 H       
  48 H48            7.4565     4.5615    -0.8102 H       
  49 H49            7.1652     3.2494    -1.9771 H       
  50 H50            3.5421     5.8032    -2.5880 H       
  51 H51            7.7481     5.0830    -2.8112 H       
  52 H52            7.9266     6.6923    -4.6641 H       
  53 H53            5.9204     7.8551    -5.4858 H       
  54 H54            3.2318     6.7507    -7.0247 H       
  55 H55            4.0358    10.1088    -4.5057 H       
  56 H56            4.2643    11.5405    -6.4948 H       
  57 H57            3.9806    10.5807    -8.7434 H       
  58 H58            3.4654     8.1886    -9.0087 H       
@<TRIPOS>BOND
   1    1    2 2
   2    1    6 1
   3    1   35 1
   4    2    3 1
   5    2   14 1
   6    3    4 am
   7    3   13 2
   8    4    5 1
   9    4    7 1
  10    5    6 2
  11    5   10 1
  12    6   36 1
  13    7    8 1
  14    7   37 1
  15    7   38 1
  16    8    9 1
  17    8   39 1
  18    8   40 1
  19    9   10 am
  20    9   11 1
  21   10   12 2
  22   11   20 1
  23   11   41 1
  24   11   42 1
  25   14   15 1
  26   14   18 1
  27   15   16 2
  28   15   43 1
  29   16   17 1
  30   17   18 2
  31   17   19 1
  32   18   44 1
  33   19   45 1
  34   19   46 1
  35   19   47 1
  36   20   21 1
  37   20   48 1
  38   20   49 1
  39   21   22 1
  40   22   23 ar
  41   22   24 ar
  42   23   27 ar
  43   23   50 1
  44   24   25 ar
  45   24   51 1
  46   25   26 ar
  47   25   52 1
  48   26   27 ar
  49   26   53 1
  50   27   28 1
  51   28   29 1
  52   29   30 ar
  53   29   31 ar
  54   30   34 ar
  55   30   54 1
  56   31   32 ar
  57   31   55 1
  58   32   33 ar
  59   32   56 1
  60   33   34 ar
  61   33   57 1
  62   34   58 1

#	End of record

