#	Name: ASD01914419
#	Creating user name:	WinNT
#	Creation time:	15. 06. 2019 20:03

#	Modifying user name:	WinNT
#	Modification time:	15. 06. 2019 20:03

#	Program:	/corina/corina34_cracker 3.40 0067  02.08.2006

@<TRIPOS>MOLECULE
ASD01914419
  58   62    0    0    0
SMALL
NO_CHARGES


@<TRIPOS>ATOM
   1 C1            -0.0167     1.3769     0.0096 C.ar    
   2 C2             0.0021    -0.0041     0.0020 C.ar    
   3 C3             1.2140    -0.6809    -0.0132 C.ar    
   4 C4             2.4051     0.0320    -0.0207 C.ar    
   5 C5             2.3825     1.4129    -0.0131 C.ar    
   6 C6             1.1726     2.0864     0.0021 C.ar    
   7 N7             1.2350    -2.0835    -0.0204 N.pl3   
   8 C8             0.5464    -2.9099     0.8264 C.2     
   9 C9             0.8554    -4.1830     0.4665 C.2     
  10 N10            1.7110    -4.1228    -0.5741 N.2     
  11 C11            1.9379    -2.8743    -0.8731 C.2     
  12 C12            0.3427    -5.4200     1.1053 C.ar    
  13 C13           -0.6200    -5.3408     2.1096 C.ar    
  14 C14           -1.0937    -6.4945     2.7007 C.ar    
  15 C15           -0.6138    -7.7287     2.2978 C.ar    
  16 C16            0.3432    -7.8127     1.3007 C.ar    
  17 C17            0.8182    -6.6656     0.6988 C.ar    
  18 C18            2.8396    -2.3875    -1.9782 C.3     
  19 O19            0.8598    -2.5084    -3.2570 O.2     
  20 C20            2.0431    -2.2426    -3.2493 C.2     
  21 N21            2.6457    -1.8176    -4.3774 N.am    
  22 F22            1.1524     3.4372     0.0095 F       
  23 Cl23          -1.2132    -9.1761     3.0457 Cl      
  24 C24            1.8206    -1.6992    -5.5703 C.3     
  25 C25            1.6401    -0.2126    -5.9213 C.3     
  26 C26            2.9458     0.2692    -6.5332 C.2     
  27 C27            4.1043     0.3789    -5.8844 C.2     
  28 C28            4.2886    -0.0013    -4.4159 C.3     
  29 C29            4.0648    -1.5100    -4.2996 C.3     
  30 S30            3.1755     0.7712    -8.2030 S.3     
  31 C31            4.8195     1.1093    -7.8762 C.2     
  32 N32            5.0884     0.8462    -6.6447 N.2     
  33 C33            5.8092     1.6375    -8.8825 C.3     
  34 C34            0.8621    -9.1597     0.8676 C.3     
  35 H35           -0.9594     1.9038     0.0169 H       
  36 H36           -0.9256    -0.5571     0.0082 H       
  37 H37            3.3489    -0.4929    -0.0321 H       
  38 H38            3.3090     1.9679    -0.0185 H       
  39 H39           -0.1141    -2.6083     1.6258 H       
  40 H40           -0.9946    -4.3783     2.4251 H       
  41 H41           -1.8399    -6.4342     3.4792 H       
  42 H42            1.5646    -6.7322    -0.0789 H       
  43 H43            3.2630    -1.4216    -1.7027 H       
  44 H44            3.6443    -3.1061    -2.1336 H       
  45 H45            2.3060    -2.2123    -6.4005 H       
  46 H46            0.8457    -2.1498    -5.3842 H       
  47 H47            0.8288    -0.0971    -6.6400 H       
  48 H48            1.4209     0.3576    -5.0185 H       
  49 H49            5.2986     0.2502    -4.0922 H       
  50 H50            3.5595     0.5278    -3.8021 H       
  51 H51            4.4587    -1.8616    -3.3460 H       
  52 H52            4.5851    -2.0165    -5.1126 H       
  53 H53            5.7982     2.7273    -8.8654 H       
  54 H54            6.8080     1.2802    -8.6319 H       
  55 H55            5.5371     1.2870    -9.8781 H       
  56 H56            0.2444    -9.5429     0.0554 H       
  57 H57            1.8918    -9.0592     0.5247 H       
  58 H58            0.8252    -9.8510     1.7094 H       
@<TRIPOS>BOND
   1    1    2 ar
   2    1    6 ar
   3    1   35 1
   4    2    3 ar
   5    2   36 1
   6    3    4 ar
   7    3    7 1
   8    4    5 ar
   9    4   37 1
  10    5    6 ar
  11    5   38 1
  12    6   22 1
  13    7    8 1
  14    7   11 1
  15    8    9 2
  16    8   39 1
  17    9   10 1
  18    9   12 1
  19   10   11 2
  20   11   18 1
  21   12   13 ar
  22   12   17 ar
  23   13   14 ar
  24   13   40 1
  25   14   15 ar
  26   14   41 1
  27   15   16 ar
  28   15   23 1
  29   16   17 ar
  30   16   34 1
  31   17   42 1
  32   18   20 1
  33   18   43 1
  34   18   44 1
  35   19   20 2
  36   20   21 am
  37   21   24 1
  38   21   29 1
  39   24   25 1
  40   24   45 1
  41   24   46 1
  42   25   26 1
  43   25   47 1
  44   25   48 1
  45   26   27 2
  46   26   30 1
  47   27   28 1
  48   27   32 1
  49   28   29 1
  50   28   49 1
  51   28   50 1
  52   29   51 1
  53   29   52 1
  54   30   31 1
  55   31   32 2
  56   31   33 1
  57   33   53 1
  58   33   54 1
  59   33   55 1
  60   34   56 1
  61   34   57 1
  62   34   58 1

#	End of record

