#	Name: ASD03331268
#	Creating user name:	WinNT
#	Creation time:	15. 06. 2019 20:38

#	Modifying user name:	WinNT
#	Modification time:	15. 06. 2019 20:38

#	Program:	/corina/corina34_cracker 3.40 0067  02.08.2006

@<TRIPOS>MOLECULE
ASD03331268
  47   50    0    0    0
SMALL
NO_CHARGES


@<TRIPOS>ATOM
   1 N1            -0.0470     1.4918     0.5554 N.am    
   2 C2            -0.0018     0.1404     1.1341 C.3     
   3 C3             0.6010    -0.8133     0.0971 C.3     
   4 N4             1.8963    -0.2867    -0.3532 N.3     
   5 C5             1.7391     1.0068    -1.0315 C.3     
   6 C6             1.1830     2.0350    -0.0407 C.3     
   7 C7            -1.1867     2.2111     0.5660 C.2     
   8 O8            -2.2180     1.7101     0.9703 O.2     
   9 N9            -1.1831     3.4859     0.1284 N.am    
  10 C10           -2.3816     4.1942     0.0332 C.ar    
  11 C11           -2.4170     5.5714     0.2459 C.ar    
  12 C12           -3.6219     6.2349     0.1426 C.ar    
  13 N13           -4.7304     5.5823    -0.1527 N.ar    
  14 C14           -4.7379     4.2792    -0.3610 C.ar    
  15 C15           -3.5734     3.5438    -0.2826 C.ar    
  16 C16            2.5861    -1.2539    -1.2173 C.3     
  17 C17            3.7824    -0.5948    -1.8541 C.ar    
  18 C18            5.0206    -0.6333    -1.2175 C.ar    
  19 N19            6.0831    -0.0708    -1.7407 N.ar    
  20 C20            6.0252     0.5671    -2.9137 C.ar    
  21 C21            4.7960     0.6433    -3.6149 C.ar    
  22 C22            3.6546     0.0364    -3.0590 C.ar    
  23 C23            7.1677     1.1690    -3.4698 C.ar    
  24 C24            7.0778     1.8119    -4.6657 C.ar    
  25 C25            5.8679     1.8859    -5.3533 C.ar    
  26 C26            4.7405     1.3151    -4.8469 C.ar    
  27 H27            0.6187     0.1464     2.0302 H       
  28 H28           -1.0114    -0.1837     1.3865 H       
  29 H29            0.7441    -1.7959     0.5465 H       
  30 H30           -0.0735    -0.8974    -0.7551 H       
  31 H31            2.7077     1.3441    -1.4005 H       
  32 H32            1.0488     0.8973    -1.8679 H       
  33 H33            0.9567     2.9635    -0.5650 H       
  34 H34            1.9174     2.2232     0.7425 H       
  35 H35           -0.3475     3.9109    -0.1204 H       
  36 H36           -1.5137     6.1114     0.4885 H       
  37 H37           -3.6588     7.3019     0.3057 H       
  38 H38           -5.6667     3.7828    -0.6004 H       
  39 H39           -3.5857     2.4784    -0.4590 H       
  40 H40            2.9149    -2.1046    -0.6204 H       
  41 H41            1.9039    -1.5976    -1.9948 H       
  42 H42            5.1078    -1.1397    -0.2676 H       
  43 H43            2.7022     0.0752    -3.5669 H       
  44 H44            8.1130     1.1215    -2.9497 H       
  45 H45            7.9583     2.2726    -5.0887 H       
  46 H46            5.8241     2.4030    -6.3005 H       
  47 H47            3.8087     1.3788    -5.3893 H       
@<TRIPOS>BOND
   1    1    2 1
   2    1    6 1
   3    1    7 am
   4    2    3 1
   5    2   27 1
   6    2   28 1
   7    3    4 1
   8    3   29 1
   9    3   30 1
  10    4    5 1
  11    4   16 1
  12    5    6 1
  13    5   31 1
  14    5   32 1
  15    6   33 1
  16    6   34 1
  17    7    8 2
  18    7    9 am
  19    9   10 1
  20    9   35 1
  21   10   11 ar
  22   10   15 ar
  23   11   12 ar
  24   11   36 1
  25   12   13 ar
  26   12   37 1
  27   13   14 ar
  28   14   15 ar
  29   14   38 1
  30   15   39 1
  31   16   17 1
  32   16   40 1
  33   16   41 1
  34   17   18 ar
  35   17   22 ar
  36   18   19 ar
  37   18   42 1
  38   19   20 ar
  39   20   21 ar
  40   20   23 ar
  41   21   22 ar
  42   21   26 ar
  43   22   43 1
  44   23   24 ar
  45   23   44 1
  46   24   25 ar
  47   24   45 1
  48   25   26 ar
  49   25   46 1
  50   26   47 1

#	End of record

