#	Name: ASD03920004
#	Creating user name:	WinNT
#	Creation time:	15. 06. 2019 20:47

#	Modifying user name:	WinNT
#	Modification time:	15. 06. 2019 20:47

#	Program:	/corina/corina34_cracker 3.40 0067  02.08.2006

@<TRIPOS>MOLECULE
ASD03920004
  62   65    0    0    0
SMALL
NO_CHARGES


@<TRIPOS>ATOM
   1 C1             0.1433     1.5987    -0.0935 C.2     
   2 C2             0.0505     0.1218     0.1911 C.3     
   3 C3            -0.8745    -0.5380    -0.8335 C.3     
   4 O4             1.2005     2.0854    -0.4346 O.2     
   5 N5            -0.9500     2.3779     0.0255 N.am    
   6 C6            -0.8598     3.8137    -0.2512 C.3     
   7 C7            -2.2372     4.3425    -0.6562 C.3     
   8 C8            -3.2303     4.1040     0.4830 C.3     
   9 C9            -2.7518     4.8363     1.7383 C.3     
  10 C10           -1.3744     4.3075     2.1433 C.3     
  11 C11           -0.3813     4.5460     1.0041 C.3     
  12 N12           -3.7027     4.6080     2.8292 N.pl3   
  13 N13           -4.7664     5.4431     3.1993 N.2     
  14 N14           -5.3742     4.9067     4.1997 N.2     
  15 C15           -4.7721     3.7494     4.5231 C.2     
  16 C16           -3.7267     3.5516     3.6664 C.2     
  17 C17           -5.1749     2.8437     5.6157 C.2     
  18 O18           -4.5521     1.8189     5.8167 O.2     
  19 N19           -6.2333     3.1521     6.3910 N.am    
  20 C20           -6.7412     2.3433     7.5088 C.3     
  21 C21           -7.9742     3.0746     8.0803 C.3     
  22 C22           -8.4304     3.9653     6.8946 C.3     
  23 C23           -7.0696     4.3594     6.2628 C.3     
  24 O24            1.3516    -0.4627     0.1041 O.3     
  25 C25            1.5635    -1.6048     0.8099 C.ar    
  26 C26            2.8335    -2.1604     0.8673 C.ar    
  27 C27            3.0469    -3.3208     1.5854 C.ar    
  28 C28            1.9949    -3.9293     2.2473 C.ar    
  29 C29            0.7277    -3.3771     2.1909 C.ar    
  30 C30            0.5115    -2.2133     1.4783 C.ar    
  31 C31            3.9794    -1.4984     0.1462 C.3     
  32 Cl32           2.2657    -5.3877     3.1492 Cl      
  33 H33           -0.3500    -0.0306     1.1934 H       
  34 H34           -0.4740    -0.3856    -1.8358 H       
  35 H35           -0.9416    -1.6063    -0.6276 H       
  36 H36           -1.8670    -0.0922    -0.7671 H       
  37 H37           -1.7965     1.9880     0.2945 H       
  38 H38           -0.1524     3.9836    -1.0628 H       
  39 H39           -2.1702     5.4108    -0.8621 H       
  40 H40           -2.5781     3.8208    -1.5505 H       
  41 H41           -4.2116     4.4807     0.1945 H       
  42 H42           -3.2974     3.0358     0.6889 H       
  43 H43           -2.6847     5.9046     1.5324 H       
  44 H44           -1.0335     4.8292     3.0376 H       
  45 H45           -1.4415     3.2392     2.3492 H       
  46 H46            0.5999     4.1693     1.2926 H       
  47 H47           -0.3143     5.6142     0.7982 H       
  48 H48           -3.0485     2.7112     3.6619 H       
  49 H49           -7.0295     1.3551     7.1504 H       
  50 H50           -5.9748     2.2518     8.2784 H       
  51 H51           -8.7541     2.3626     8.3502 H       
  52 H52           -7.6961     3.6871     8.9380 H       
  53 H53           -9.0414     3.3981     6.1924 H       
  54 H54           -8.9638     4.8467     7.2507 H       
  55 H55           -6.6221     5.1905     6.8079 H       
  56 H56           -7.2007     4.6203     5.2126 H       
  57 H57            4.0354    -3.7537     1.6300 H       
  58 H58           -0.0921    -3.8536     2.7078 H       
  59 H59           -0.4770    -1.7799     1.4385 H       
  60 H60            4.4614    -0.7816     0.8110 H       
  61 H61            4.7026    -2.2549    -0.1583 H       
  62 H62            3.6028    -0.9800    -0.7355 H       
@<TRIPOS>BOND
   1    1    2 1
   2    1    4 2
   3    1    5 am
   4    2    3 1
   5    2   24 1
   6    2   33 1
   7    3   34 1
   8    3   35 1
   9    3   36 1
  10    5    6 1
  11    5   37 1
  12    6    7 1
  13    6   11 1
  14    6   38 1
  15    7    8 1
  16    7   39 1
  17    7   40 1
  18    8    9 1
  19    8   41 1
  20    8   42 1
  21    9   10 1
  22    9   12 1
  23    9   43 1
  24   10   11 1
  25   10   44 1
  26   10   45 1
  27   11   46 1
  28   11   47 1
  29   12   13 1
  30   12   16 1
  31   13   14 2
  32   14   15 1
  33   15   16 2
  34   15   17 1
  35   16   48 1
  36   17   18 2
  37   17   19 am
  38   19   20 1
  39   19   23 1
  40   20   21 1
  41   20   49 1
  42   20   50 1
  43   21   22 1
  44   21   51 1
  45   21   52 1
  46   22   23 1
  47   22   53 1
  48   22   54 1
  49   23   55 1
  50   23   56 1
  51   24   25 1
  52   25   26 ar
  53   25   30 ar
  54   26   27 ar
  55   26   31 1
  56   27   28 ar
  57   27   57 1
  58   28   29 ar
  59   28   32 1
  60   29   30 ar
  61   29   58 1
  62   30   59 1
  63   31   60 1
  64   31   61 1
  65   31   62 1

#	End of record

