#	Name: ASD05390002
#	Creating user name:	WinNT
#	Creation time:	15. 06. 2019 20:59

#	Modifying user name:	WinNT
#	Modification time:	15. 06. 2019 20:59

#	Program:	/corina/corina34_cracker 3.40 0067  02.08.2006

@<TRIPOS>MOLECULE
ASD05390002
  17   18    0    0    0
SMALL
NO_CHARGES


@<TRIPOS>ATOM
   1 N1            -0.0111     0.9658     0.0074 N.pl3   
   2 C2            -1.2320     1.6488     0.0169 C.ar    
   3 C3            -1.2320     3.0111     0.0187 C.ar    
   4 C4            -2.4610     3.7059     0.0223 C.ar    
   5 C5            -2.8245     5.0394     0.0249 C.2     
   6 N6            -4.1644     5.1015     0.0279 N.pl3   
   7 N7            -4.7017     3.8092     0.0274 N.2     
   8 C8            -3.7125     2.9332     0.0240 C.ar    
   9 C9            -3.6380     1.5233     0.0224 C.ar    
  10 C10           -2.4270     0.9148     0.0185 C.ar    
  11 H11            0.0021    -0.0041     0.0020 H       
  12 H12            0.8223     1.4622     0.0021 H       
  13 H13           -0.2991     3.5553     0.0177 H       
  14 H14           -2.1492     5.8823     0.0245 H       
  15 H15           -4.6840     5.9206     0.0307 H       
  16 H16           -4.5419     0.9323     0.0238 H       
  17 H17           -2.3810    -0.1642     0.0121 H       
@<TRIPOS>BOND
   1    1   11 1
   2    1   12 1
   3    1    2 1
   4    2   10 ar
   5    2    3 ar
   6    3   13 1
   7    3    4 ar
   8    4    8 ar
   9    4    5 2
  10    5   14 1
  11    5    6 1
  12    6    7 1
  13    6   15 1
  14    7    8 2
  15    8    9 ar
  16    9   10 ar
  17    9   16 1
  18   10   17 1

#	End of record

