#	Name: ASD03430503
#	Creating user name:	WinNT
#	Creation time:	15. 06. 2019 20:41

#	Modifying user name:	WinNT
#	Modification time:	15. 06. 2019 20:41

#	Program:	/corina/corina34_cracker 3.40 0067  02.08.2006

@<TRIPOS>MOLECULE
ASD03430503
  60   63    0    0    0
SMALL
NO_CHARGES


@<TRIPOS>ATOM
   1 O1             5.0139     5.6360    -2.9136 O.3     
   2 C2             6.0568     6.4956    -3.4115 C.3     
   3 C3             5.5125     7.8964    -3.0996 C.3     
   4 C4             4.5622     7.6507    -1.9585 C.ar    
   5 C5             4.3338     6.2770    -1.9220 C.ar    
   6 C6             3.4927     5.7603    -0.9420 C.ar    
   7 C7             2.8869     6.6031    -0.0258 C.ar    
   8 C8             3.1151     7.9707    -0.0796 C.ar    
   9 C9             3.9546     8.4882    -1.0484 C.ar    
  10 N10            6.5438     9.8723    -3.6076 N.am    
  11 C11            6.6106     8.8517    -2.7295 C.2     
  12 C12            4.8329     8.5120    -4.2865 C.ar    
  13 C13            3.7707     8.1334    -5.0772 C.ar    
  14 C14            3.3687     8.9379    -6.1286 C.ar    
  15 C15            4.0351    10.1226    -6.3833 C.ar    
  16 C16            5.0993    10.5061    -5.5940 C.ar    
  17 C17            5.5115     9.7027    -4.5335 C.ar    
  18 O18            7.4024     8.7289    -1.8190 O.2     
  19 O19            2.0665     6.0898     0.9283 O.3     
  20 Si20           2.8396     5.6198     2.2853 Si      
  21 C21            1.5901     5.2665     3.6212 C.3     
  22 C22            0.8632     6.5599     3.9947 C.3     
  23 C23            0.5759     4.2401     3.1123 C.3     
  24 C24            3.8272     4.0794     1.9355 C.3     
  25 C25            4.3856     3.5228     3.2468 C.3     
  26 C26            2.9241     3.0323     1.2806 C.3     
  27 C27            3.9847     6.9769     2.8492 C.3     
  28 C28            4.2917     6.7995     4.3375 C.3     
  29 C29            5.2867     6.9112     2.0485 C.3     
  30 H30            6.9919     6.3169    -2.8807 H       
  31 H31            6.1886     6.3620    -4.4853 H       
  32 H32            3.3111     4.6967    -0.8957 H       
  33 H33            2.6387     8.6282     0.6325 H       
  34 H34            4.1349     9.5521    -1.0921 H       
  35 H35            7.1423    10.6356    -3.5974 H       
  36 H36            3.2516     7.2078    -4.8767 H       
  37 H37            2.5363     8.6410    -6.7494 H       
  38 H38            3.7211    10.7502    -7.2042 H       
  39 H39            5.6150    11.4325    -5.7992 H       
  40 H40            2.0995     4.8694     4.4993 H       
  41 H41            0.3538     6.9569     3.1166 H       
  42 H42            0.1321     6.3532     4.7763 H       
  43 H43            1.5857     7.2911     4.3572 H       
  44 H44            0.1781     4.5678     2.1519 H       
  45 H45            1.0659     3.2739     2.9921 H       
  46 H46           -0.2387     4.1475     3.8305 H       
  47 H47            4.6507     4.3205     1.2632 H       
  48 H48            3.5625     3.2888     3.9219 H       
  49 H49            4.9571     2.6173     3.0430 H       
  50 H50            5.0351     4.2659     3.7095 H       
  51 H51            2.4073     3.4785     0.4310 H       
  52 H52            3.5298     2.1934     0.9378 H       
  53 H53            2.1918     2.6789     2.0066 H       
  54 H54            3.5082     7.9441     2.6893 H       
  55 H55            4.8376     5.8680     4.4874 H       
  56 H56            4.8979     7.6358     4.6857 H       
  57 H57            3.3585     6.7682     4.8999 H       
  58 H58            5.0729     7.0780     0.9928 H       
  59 H59            5.9724     7.6793     2.4061 H       
  60 H60            5.7426     5.9293     2.1761 H       
@<TRIPOS>BOND
   1    1    2 1
   2    1    5 1
   3    2    3 1
   4    2   30 1
   5    2   31 1
   6    3    4 1
   7    3   11 1
   8    3   12 1
   9    4    5 ar
  10    4    9 ar
  11    5    6 ar
  12    6    7 ar
  13    6   32 1
  14    7    8 ar
  15    7   19 1
  16    8    9 ar
  17    8   33 1
  18    9   34 1
  19   10   11 am
  20   10   17 1
  21   10   35 1
  22   11   18 2
  23   12   13 ar
  24   12   17 ar
  25   13   14 ar
  26   13   36 1
  27   14   15 ar
  28   14   37 1
  29   15   16 ar
  30   15   38 1
  31   16   17 ar
  32   16   39 1
  33   19   20 1
  34   20   21 1
  35   20   24 1
  36   20   27 1
  37   21   22 1
  38   21   23 1
  39   21   40 1
  40   22   41 1
  41   22   42 1
  42   22   43 1
  43   23   44 1
  44   23   45 1
  45   23   46 1
  46   24   25 1
  47   24   26 1
  48   24   47 1
  49   25   48 1
  50   25   49 1
  51   25   50 1
  52   26   51 1
  53   26   52 1
  54   26   53 1
  55   27   28 1
  56   27   29 1
  57   27   54 1
  58   28   55 1
  59   28   56 1
  60   28   57 1
  61   29   58 1
  62   29   59 1
  63   29   60 1

#	End of record

