#	Name: ASD01230250
#	Creating user name:	WinNT
#	Creation time:	15. 06. 2019 19:12

#	Modifying user name:	WinNT
#	Modification time:	15. 06. 2019 19:12

#	Program:	/corina/corina34_cracker 3.40 0067  02.08.2006

@<TRIPOS>MOLECULE
ASD01230250
  28   30    0    0    0
SMALL
NO_CHARGES


@<TRIPOS>ATOM
   1 C1            -0.0166     1.3735     0.0096 C.ar    
   2 C2             0.0021    -0.0041     0.0020 C.ar    
   3 C3             1.2114    -0.6810    -0.0166 C.ar    
   4 C4             2.4004     0.0233    -0.0272 C.ar    
   5 C5             2.3894     1.4151    -0.0179 C.ar    
   6 C6             1.1679     2.0985     0.0022 C.ar    
   7 N7             1.1350     3.4896     0.0197 N.pl3   
   8 C8             0.0560     4.2366    -0.3201 C.2     
   9 N9            -1.1596     3.8269    -0.3562 N.am    
  10 S10           -1.5425     2.2591     0.0215 S.o2    
  11 Cl11           1.2326    -2.4168    -0.0260 Cl      
  12 O12           -2.3131     1.7554    -1.0609 O.2     
  13 O13           -1.9971     2.2670     1.3678 O.2     
  14 C14            0.3063     5.6762    -0.6887 C.3     
  15 C15            3.6664     2.1709    -0.0298 C.2     
  16 C16            4.8229     1.9687     0.8500 C.2     
  17 C17            5.7390     2.8767     0.4734 C.2     
  18 O18            5.2448     3.6000    -0.5427 O.3     
  19 C19            4.0084     3.1888    -0.8611 C.2     
  20 H20           -0.9258    -0.5566     0.0109 H       
  21 H21            3.3408    -0.5077    -0.0424 H       
  22 H22            1.9394     3.9570     0.2943 H       
  23 H23            0.4875     5.7505    -1.7609 H       
  24 H24           -0.5651     6.2756    -0.4251 H       
  25 H25            1.1776     6.0438    -0.1466 H       
  26 H26            4.9184     1.2386     1.6401 H       
  27 H27            6.7155     3.0038     0.9170 H       
  28 H28            3.3888     3.5991    -1.6448 H       
@<TRIPOS>BOND
   1    1    2 ar
   2    1    6 ar
   3    1   10 1
   4    2    3 ar
   5    2   20 1
   6    3    4 ar
   7    3   11 1
   8    4    5 ar
   9    4   21 1
  10    5    6 ar
  11    5   15 1
  12    6    7 1
  13    7    8 1
  14    7   22 1
  15    8    9 2
  16    8   14 1
  17    9   10 am
  18   10   12 2
  19   10   13 2
  20   14   23 1
  21   14   24 1
  22   14   25 1
  23   15   16 1
  24   15   19 2
  25   16   17 2
  26   16   26 1
  27   17   18 1
  28   17   27 1
  29   18   19 1
  30   19   28 1

#	End of record

