#	Name: ASD08150194
#	Creating user name:	WinNT
#	Creation time:	15. 06. 2019 21:15

#	Modifying user name:	WinNT
#	Modification time:	15. 06. 2019 21:15

#	Program:	/corina/corina34_cracker 3.40 0067  02.08.2006

@<TRIPOS>MOLECULE
ASD08150194
  45   49    0    0    0
SMALL
NO_CHARGES


@<TRIPOS>ATOM
   1 N1            -0.0157     1.2952    -0.0517 N.2     
   2 C2             0.0018    -0.0026    -0.0878 C.2     
   3 N3             1.1484    -0.7345    -0.1052 N.am    
   4 C4             2.3558    -0.1234    -0.0850 C.2     
   5 C5             2.3701     1.3460    -0.0440 C.ar    
   6 C6             3.5601     2.0708    -0.0203 C.ar    
   7 C7             3.5159     3.4471     0.0183 C.ar    
   8 C8             2.2979     4.1146     0.0337 C.ar    
   9 C9             1.1111     3.4173     0.0112 C.ar    
  10 C10            1.1296     2.0215    -0.0285 C.ar    
  11 O11            3.3898    -0.7657    -0.0998 O.2     
  12 C12            4.8858     1.3542    -0.0362 C.3     
  13 C13            1.0407    -2.8707     1.0343 C.ar    
  14 C14            1.0787    -2.1334    -0.1439 C.ar    
  15 C15            1.0460    -2.8053    -1.3620 C.ar    
  16 C16            0.9765    -4.1895    -1.3491 C.ar    
  17 C17            0.9422    -4.8529    -0.1374 C.ar    
  18 N18            0.9747    -4.1873     1.0012 N.ar    
  19 Cl19           1.0879    -2.0505     2.5636 Cl      
  20 C20           -1.3149    -0.7353    -0.1111 C.3     
  21 N21           -3.9983     1.5256     0.6771 N.2     
  22 C22           -3.0837     0.6652     1.0192 C.2     
  23 N23           -2.4134     0.2336    -0.0866 N.pl3   
  24 C24           -2.9560     0.8735    -1.1722 C.ar    
  25 N25           -2.7254     0.8607    -2.4809 N.ar    
  26 C26           -3.4379     1.6108    -3.2950 C.ar    
  27 N27           -4.4030     2.4034    -2.8663 N.ar    
  28 C28           -4.7058     2.4827    -1.5746 C.ar    
  29 C29           -3.9732     1.7003    -0.6660 C.ar    
  30 N30           -5.7188     3.3166    -1.1346 N.pl3   
  31 H31            4.4362     4.0120     0.0372 H       
  32 H32            2.2817     5.1940     0.0640 H       
  33 H33            0.1702     3.9473     0.0242 H       
  34 H34            5.1534     1.1082    -1.0638 H       
  35 H35            5.6522     1.9985     0.3945 H       
  36 H36            4.8104     0.4378     0.5490 H       
  37 H37            1.0737    -2.2615    -2.2947 H       
  38 H38            0.9491    -4.7435    -2.2758 H       
  39 H39            0.8877    -5.9314    -0.1223 H       
  40 H40           -1.3804    -1.3360    -1.0183 H       
  41 H41           -1.3844    -1.3855     0.7610 H       
  42 H42           -2.8849     0.3412     2.0301 H       
  43 H43           -3.2248     1.5768    -4.3533 H       
  44 H44           -6.2172     3.8521    -1.7717 H       
  45 H45           -5.9304     3.3658    -0.1893 H       
@<TRIPOS>BOND
   1    1    2 2
   2    1   10 1
   3    2    3 1
   4    2   20 1
   5    3    4 am
   6    3   14 1
   7    4    5 1
   8    4   11 2
   9    5    6 ar
  10    5   10 ar
  11    6    7 ar
  12    6   12 1
  13    7    8 ar
  14    7   31 1
  15    8    9 ar
  16    8   32 1
  17    9   10 ar
  18    9   33 1
  19   12   34 1
  20   12   35 1
  21   12   36 1
  22   13   14 ar
  23   13   18 ar
  24   13   19 1
  25   14   15 ar
  26   15   16 ar
  27   15   37 1
  28   16   17 ar
  29   16   38 1
  30   17   18 ar
  31   17   39 1
  32   20   23 1
  33   20   40 1
  34   20   41 1
  35   21   22 2
  36   21   29 1
  37   22   23 1
  38   22   42 1
  39   23   24 1
  40   24   25 ar
  41   24   29 ar
  42   25   26 ar
  43   26   27 ar
  44   26   43 1
  45   27   28 ar
  46   28   29 ar
  47   28   30 1
  48   30   44 1
  49   30   45 1

#	End of record

