#	Name: ASD08178247
#	Creating user name:	WinNT
#	Creation time:	15. 06. 2019 21:18

#	Modifying user name:	WinNT
#	Modification time:	15. 06. 2019 21:18

#	Program:	/corina/corina34_cracker 3.40 0067  02.08.2006

@<TRIPOS>MOLECULE
ASD08178247
  63   66    0    0    0
SMALL
NO_CHARGES


@<TRIPOS>ATOM
   1 N1            -0.0168     1.3902     0.0097 N.am    
   2 C2            -0.2013     0.0081     0.0220 C.ar    
   3 C3             0.8946    -0.8455    -0.0936 C.ar    
   4 N4            -1.4179    -0.4995     0.1491 N.ar    
   5 N5            -1.6302    -1.7652     0.1650 N.ar    
   6 C6            -0.6538    -2.6442     0.0562 C.ar    
   7 C7             0.6581    -2.2112    -0.0759 C.ar    
   8 C8            -0.9615    -4.1193     0.0817 C.3     
   9 C9            -1.7451    -4.4549     1.3521 C.3     
  10 C10           -2.0575    -5.9525     1.3780 C.3     
  11 C11           -2.8412    -6.2881     2.6485 C.3     
  12 C12           -3.1488    -7.7632     2.6739 C.2     
  13 N13           -2.4075    -8.6894     3.1937 N.2     
  14 N14           -2.8416    -9.8721     3.1131 N.2     
  15 C15           -3.9833   -10.0563     2.5216 C.2     
  16 S16           -4.5870    -8.5376     2.0079 S.3     
  17 N17           -4.6137   -11.2827     2.3403 N.am    
  18 C18           -4.0365   -12.4113     2.7979 C.2     
  19 C19           -4.7196   -13.7401     2.6015 C.3     
  20 O20           -2.9672   -12.3575     3.3678 O.2     
  21 C21           -4.7940   -14.0540     1.1294 C.ar    
  22 C22           -5.9316   -13.7358     0.4117 C.ar    
  23 C23           -6.0004   -14.0231    -0.9390 C.ar    
  24 C24           -4.9319   -14.6289    -1.5722 C.ar    
  25 C25           -3.7927   -14.9477    -0.8542 C.ar    
  26 C26           -3.7223   -14.6548     0.4960 C.ar    
  27 C27           -1.0846     2.2126     0.0164 C.2     
  28 O28           -2.2043     1.7533    -0.0614 O.2     
  29 C29           -0.8871     3.7030     0.1206 C.3     
  30 C30           -0.1712     4.2019    -1.1081 C.ar    
  31 C31            1.2026     4.3512    -1.0943 C.ar    
  32 C32            1.8599     4.8089    -2.2227 C.ar    
  33 C33            1.1413     5.1168    -3.3639 C.ar    
  34 C34           -0.2329     4.9670    -3.3764 C.ar    
  35 C35           -0.8883     4.5048    -2.2507 C.ar    
  36 Cl36          -2.4502   -15.7092    -1.6488 Cl      
  37 O37           -3.9759   -14.7614     3.2693 O.3     
  38 Cl38           3.5856     4.9973    -2.2059 Cl      
  39 O39           -2.1590     4.3459     0.2247 O.3     
  40 H40            0.8800     1.7598     0.0003 H       
  41 H41            1.8965    -0.4551    -0.1941 H       
  42 H42            1.4702    -2.9174    -0.1662 H       
  43 H43           -1.5573    -4.3813    -0.7926 H       
  44 H44           -0.0299    -4.6850     0.0693 H       
  45 H45           -1.1493    -4.1929     2.2264 H       
  46 H46           -2.6767    -3.8892     1.3645 H       
  47 H47           -2.6534    -6.2145     0.5037 H       
  48 H48           -1.1259    -6.5182     1.3656 H       
  49 H49           -2.2453    -6.0261     3.5228 H       
  50 H50           -3.7727    -5.7224     2.6609 H       
  51 H51           -5.4689   -11.3257     1.8845 H       
  52 H52           -5.7273   -13.6952     3.0148 H       
  53 H53           -6.7672   -13.2630     0.9062 H       
  54 H54           -6.8895   -13.7742    -1.4993 H       
  55 H55           -4.9860   -14.8539    -2.6271 H       
  56 H56           -2.8335   -14.9034     1.0569 H       
  57 H57           -0.2919     3.9297     1.0051 H       
  58 H58            1.7631     4.1110    -0.2029 H       
  59 H59            1.6537     5.4744    -4.2447 H       
  60 H60           -0.7940     5.2074    -4.2674 H       
  61 H61           -1.9619     4.3876    -2.2611 H       
  62 H62           -3.0676   -14.8578     2.9519 H       
  63 H63           -2.7428     4.1875    -0.5297 H       
@<TRIPOS>BOND
   1    1    2 1
   2    1   27 am
   3    1   40 1
   4    2    3 ar
   5    2    4 ar
   6    3    7 ar
   7    3   41 1
   8    4    5 ar
   9    5    6 ar
  10    6    7 ar
  11    6    8 1
  12    7   42 1
  13    8    9 1
  14    8   43 1
  15    8   44 1
  16    9   10 1
  17    9   45 1
  18    9   46 1
  19   10   11 1
  20   10   47 1
  21   10   48 1
  22   11   12 1
  23   11   49 1
  24   11   50 1
  25   12   13 2
  26   12   16 1
  27   13   14 1
  28   14   15 2
  29   15   16 1
  30   15   17 1
  31   17   18 am
  32   17   51 1
  33   18   19 1
  34   18   20 2
  35   19   21 1
  36   19   37 1
  37   19   52 1
  38   21   22 ar
  39   21   26 ar
  40   22   23 ar
  41   22   53 1
  42   23   24 ar
  43   23   54 1
  44   24   25 ar
  45   24   55 1
  46   25   26 ar
  47   25   36 1
  48   26   56 1
  49   27   28 2
  50   27   29 1
  51   29   30 1
  52   29   39 1
  53   29   57 1
  54   30   31 ar
  55   30   35 ar
  56   31   32 ar
  57   31   58 1
  58   32   33 ar
  59   32   38 1
  60   33   34 ar
  61   33   59 1
  62   34   35 ar
  63   34   60 1
  64   35   61 1
  65   37   62 1
  66   39   63 1

#	End of record

