#	Name: ASD01148321
#	Creating user name:	WinNT
#	Creation time:	15. 06. 2019 19:02

#	Modifying user name:	WinNT
#	Modification time:	15. 06. 2019 19:02

#	Program:	/corina/corina34_cracker 3.40 0067  02.08.2006

@<TRIPOS>MOLECULE
ASD01148321
  61   64    0    0    0
SMALL
NO_CHARGES


@<TRIPOS>ATOM
   1 C1            -0.1534     2.6547    -0.6690 C.ar    
   2 C2             0.3300     1.3605    -0.7426 C.ar    
   3 C3            -0.5270     0.2908    -0.5543 C.ar    
   4 C4            -1.8655     0.5156    -0.2930 C.ar    
   5 C5            -2.3479     1.8090    -0.2196 C.ar    
   6 C6            -1.4909     2.8784    -0.4019 C.ar    
   7 C7            -3.8075     2.0535     0.0649 C.3     
   8 O8            -4.3502     1.0157     0.9063 O.3     
   9 C9            -3.9965     3.3082     0.9506 C.3     
  10 C10           -4.0410     2.7212     2.3486 C.2     
  11 N11           -4.2356     1.4490     2.2473 N.2     
  12 C12           -3.8880     3.4750     3.6084 C.ar    
  13 C13           -3.9500     2.8071     4.8342 C.ar    
  14 C14           -3.6754     4.8556     3.5750 C.ar    
  15 C15           -3.5323     5.5586     4.7497 C.ar    
  16 C16           -3.5996     4.8915     5.9757 C.ar    
  17 C17           -3.8069     3.5100     6.0089 C.ar    
  18 C18           -3.4461     5.6458     7.2363 C.2     
  19 O19           -2.4415     6.3003     7.4343 O.2     
  20 N20           -4.4202     5.6082     8.1670 N.am    
  21 C21           -4.6032     2.1757    -1.2362 C.3     
  22 F22           -4.4669     0.9978    -1.9785 F       
  23 F23           -5.9539     2.3859    -0.9387 F       
  24 F24           -4.1162     3.2552    -1.9809 F       
  25 Cl25           2.0111     1.0788    -1.0715 Cl      
  26 C26           -4.2119     6.2420     9.4713 C.3     
  27 C27           -4.6714     7.6760     9.4121 C.ar    
  28 N28           -3.8493     8.6059     8.9671 N.ar    
  29 C29           -5.5858     4.9875     7.8979 C.2     
  30 C30           -4.2080     9.8731     8.8976 C.ar    
  31 C31           -5.4701    10.2732     9.2931 C.ar    
  32 C32           -6.3626     9.3234     9.7667 C.ar    
  33 C33           -5.9518     8.0005     9.8195 C.ar    
  34 O34           -5.8011     4.5566     6.7828 O.2     
  35 O35           -6.5114     4.8451     8.8647 O.3     
  36 C36           -7.7431     4.1664     8.5033 C.3     
  37 C37            0.7794     3.8204    -0.8740 C.3     
  38 F38            0.0643     5.0168    -0.7528 F       
  39 F39            1.7919     3.7826     0.0907 F       
  40 F40            1.3478     3.7441    -2.1500 F       
  41 C41           -0.0014    -1.1193    -0.6348 C.3     
  42 F42           -1.0479    -2.0205    -0.4118 F       
  43 F43            0.5436    -1.3421    -1.9039 F       
  44 F44            0.9883    -1.3042     0.3366 F       
  45 H45           -2.5346    -0.3193    -0.1464 H       
  46 H46           -1.8684     3.8886    -0.3445 H       
  47 H47           -3.1516     3.9884     0.8433 H       
  48 H48           -4.9332     3.8122     0.7126 H       
  49 H49           -4.1106     1.7395     4.8598 H       
  50 H50           -3.6230     5.3712     2.6274 H       
  51 H51           -3.3676     6.6256     4.7239 H       
  52 H52           -3.8590     2.9944     6.9564 H       
  53 H53           -4.7840     5.7082    10.2302 H       
  54 H54           -3.1525     6.2102     9.7257 H       
  55 H55           -3.5070    10.6067     8.5276 H       
  56 H56           -5.7577    11.3126     9.2344 H       
  57 H57           -7.3555     9.6071    10.0831 H       
  58 H58           -6.6208     7.2342    10.1825 H       
  59 H59           -8.2385     4.7147     7.7020 H       
  60 H60           -7.5151     3.1556     8.1649 H       
  61 H61           -8.4002     4.1193     9.3716 H       
@<TRIPOS>BOND
   1    1    2 ar
   2    1   37 1
   3    1    6 ar
   4    2    3 ar
   5    2   25 1
   6    3    4 ar
   7    3   41 1
   8    4    5 ar
   9    4   45 1
  10    5    6 ar
  11    5    7 1
  12    6   46 1
  13    7    8 1
  14    7    9 1
  15    7   21 1
  16    8   11 1
  17    9   10 1
  18    9   47 1
  19    9   48 1
  20   10   11 2
  21   10   12 1
  22   12   13 ar
  23   12   14 ar
  24   13   17 ar
  25   13   49 1
  26   14   15 ar
  27   14   50 1
  28   15   16 ar
  29   15   51 1
  30   16   17 ar
  31   16   18 1
  32   17   52 1
  33   18   19 2
  34   18   20 am
  35   20   26 1
  36   20   29 am
  37   21   22 1
  38   21   23 1
  39   21   24 1
  40   26   27 1
  41   26   53 1
  42   26   54 1
  43   27   28 ar
  44   27   33 ar
  45   28   30 ar
  46   29   34 2
  47   29   35 1
  48   30   31 ar
  49   30   55 1
  50   31   32 ar
  51   31   56 1
  52   32   33 ar
  53   32   57 1
  54   33   58 1
  55   35   36 1
  56   36   59 1
  57   36   60 1
  58   36   61 1
  59   37   38 1
  60   37   39 1
  61   37   40 1
  62   41   42 1
  63   41   43 1
  64   41   44 1

#	End of record

