#	Name: ASD08178358
#	Creating user name:	WinNT
#	Creation time:	15. 06. 2019 21:18

#	Modifying user name:	WinNT
#	Modification time:	15. 06. 2019 21:18

#	Program:	/corina/corina34_cracker 3.40 0067  02.08.2006

@<TRIPOS>MOLECULE
ASD08178358
  76   79    0    0    0
SMALL
NO_CHARGES


@<TRIPOS>ATOM
   1 N1            -0.0168     1.3902     0.0097 N.am    
   2 C2            -0.2173     0.0103     0.0231 C.ar    
   3 C3             0.8683    -0.8557    -0.0926 C.ar    
   4 N4            -1.4399    -0.4832     0.1513 N.ar    
   5 N5            -1.6667    -1.7463     0.1686 N.ar    
   6 C6            -0.7002    -2.6368     0.0602 C.ar    
   7 C7             0.6159    -2.2190    -0.0733 C.ar    
   8 C8            -1.0247    -4.1082     0.0874 C.3     
   9 C9            -1.8115    -4.4335     1.3586 C.3     
  10 C10           -2.1410    -5.9273     1.3862 C.3     
  11 C11           -2.9278    -6.2527     2.6574 C.3     
  12 C12           -3.2523    -7.7241     2.6845 C.2     
  13 N13           -2.5213    -8.6581     3.2049 N.2     
  14 N14           -2.9690    -9.8359     3.1257 N.2     
  15 C15           -4.1130   -10.0077     2.5350 C.2     
  16 S16           -4.6995    -8.4828     2.0200 S.3     
  17 N17           -4.7575   -11.2270     2.3553 N.am    
  18 C18           -4.1929   -12.3617     2.8139 C.2     
  19 C19           -4.8913   -13.6828     2.6192 C.3     
  20 O20           -3.1229   -12.3195     3.3832 O.2     
  21 C21           -4.0568   -14.7853     3.2184 C.ar    
  22 C22           -3.5981   -15.8166     2.4204 C.ar    
  23 C23           -2.8327   -16.8280     2.9701 C.ar    
  24 C24           -2.5254   -16.8076     4.3178 C.ar    
  25 C25           -2.9833   -15.7758     5.1156 C.ar    
  26 C26           -3.7451   -14.7622     4.5650 C.ar    
  27 C27           -1.0750     2.2250     0.0167 C.2     
  28 C28           -0.8601     3.7130     0.1198 C.3     
  29 O29           -2.2000     1.7786    -0.0599 O.2     
  30 C30           -2.1935     4.4152     0.1067 C.ar    
  31 C31           -2.8565     4.6619     1.2943 C.ar    
  32 C32           -4.0796     5.3059     1.2822 C.ar    
  33 C33           -4.6395     5.7036     0.0825 C.ar    
  34 C34           -3.9760     5.4577    -1.1051 C.ar    
  35 C35           -2.7509     4.8175    -1.0926 C.ar    
  36 C36           -1.6917   -17.9107     4.9172 C.3     
  37 C37           -0.2113   -17.5329     4.8356 C.3     
  38 C38            0.0509   -16.3059     5.7111 C.3     
  39 C39           -6.2566   -13.6444     3.3086 C.3     
  40 C40            0.6416   -18.7033     5.3291 C.3     
  41 H41            0.8842     1.7494    -0.0006 H       
  42 H42            1.8745    -0.4770    -0.1944 H       
  43 H43            1.4199    -2.9345    -0.1636 H       
  44 H44           -1.6240    -4.3643    -0.7864 H       
  45 H45           -0.0997    -4.6845     0.0751 H       
  46 H46           -1.2123    -4.1774     2.2323 H       
  47 H47           -2.7366    -3.8571     1.3708 H       
  48 H48           -2.7402    -6.1835     0.5124 H       
  49 H49           -1.2159    -6.5037     1.3739 H       
  50 H50           -2.3286    -5.9966     3.5311 H       
  51 H51           -3.8529    -5.6763     2.6696 H       
  52 H52           -5.6133   -11.2607     1.9000 H       
  53 H53           -5.0274   -13.8683     1.5537 H       
  54 H54           -3.8382   -15.8325     1.3676 H       
  55 H55           -2.4749   -17.6341     2.3468 H       
  56 H56           -2.7435   -15.7601     6.1685 H       
  57 H57           -4.1028   -13.9560     5.1883 H       
  58 H58           -0.3385     3.9413     1.0493 H       
  59 H59           -0.2620     4.0532    -0.7255 H       
  60 H60           -2.4191     4.3512     2.2316 H       
  61 H61           -4.5979     5.4981     2.2100 H       
  62 H62           -5.5954     6.2062     0.0730 H       
  63 H63           -4.4136     5.7681    -2.0424 H       
  64 H64           -2.2326     4.6254    -2.0204 H       
  65 H65           -1.9734   -18.0529     5.9605 H       
  66 H66           -1.8617   -18.8353     4.3657 H       
  67 H67            0.0488   -17.3042     3.8021 H       
  68 H68           -0.5567   -15.4721     5.3595 H       
  69 H69           -0.2092   -16.5346     6.7446 H       
  70 H70            1.1056   -16.0368     5.6529 H       
  71 H71           -6.8602   -12.8470     2.8752 H       
  72 H72           -6.7618   -14.6000     3.1678 H       
  73 H73           -6.1205   -13.4589     4.3741 H       
  74 H74            0.4548   -19.5775     4.7054 H       
  75 H75            1.6963   -18.4342     5.2710 H       
  76 H76            0.3815   -18.9320     6.3626 H       
@<TRIPOS>BOND
   1    1    2 1
   2    1   27 am
   3    1   41 1
   4    2    3 ar
   5    2    4 ar
   6    3    7 ar
   7    3   42 1
   8    4    5 ar
   9    5    6 ar
  10    6    7 ar
  11    6    8 1
  12    7   43 1
  13    8    9 1
  14    8   44 1
  15    8   45 1
  16    9   10 1
  17    9   46 1
  18    9   47 1
  19   10   11 1
  20   10   48 1
  21   10   49 1
  22   11   12 1
  23   11   50 1
  24   11   51 1
  25   12   13 2
  26   12   16 1
  27   13   14 1
  28   14   15 2
  29   15   16 1
  30   15   17 1
  31   17   18 am
  32   17   52 1
  33   18   19 1
  34   18   20 2
  35   19   21 1
  36   19   39 1
  37   19   53 1
  38   21   22 ar
  39   21   26 ar
  40   22   23 ar
  41   22   54 1
  42   23   24 ar
  43   23   55 1
  44   24   25 ar
  45   24   36 1
  46   25   26 ar
  47   25   56 1
  48   26   57 1
  49   27   28 1
  50   27   29 2
  51   28   30 1
  52   28   58 1
  53   28   59 1
  54   30   31 ar
  55   30   35 ar
  56   31   32 ar
  57   31   60 1
  58   32   33 ar
  59   32   61 1
  60   33   34 ar
  61   33   62 1
  62   34   35 ar
  63   34   63 1
  64   35   64 1
  65   36   37 1
  66   36   65 1
  67   36   66 1
  68   37   38 1
  69   37   40 1
  70   37   67 1
  71   38   68 1
  72   38   69 1
  73   38   70 1
  74   39   71 1
  75   39   72 1
  76   39   73 1
  77   40   74 1
  78   40   75 1
  79   40   76 1

#	End of record

