#	Name: ASD01913901
#	Creating user name:	WinNT
#	Creation time:	15. 06. 2019 20:02

#	Modifying user name:	WinNT
#	Modification time:	15. 06. 2019 20:02

#	Program:	/corina/corina34_cracker 3.40 0067  02.08.2006

@<TRIPOS>MOLECULE
ASD01913901
  42   44    0    0    0
SMALL
NO_CHARGES


@<TRIPOS>ATOM
   1 C1            -0.0173     1.4278     0.0099 C.ar    
   2 C2             0.0021    -0.0041     0.0020 C.1     
   3 C3             0.0180    -1.1779    -0.0044 C.1     
   4 C4             0.0374    -2.6098    -0.0123 C.ar    
   5 C5            -1.1552    -3.3455    -0.0049 C.ar    
   6 C6             0.0738    -5.2913    -0.0270 C.ar    
   7 N7             1.2235    -4.6330    -0.0401 N.ar    
   8 C8             1.2495    -3.3127    -0.0335 C.ar    
   9 N9            -1.0934    -4.6646    -0.0125 N.ar    
  10 C10            1.1812     2.1463     0.0023 C.ar    
  11 C11            1.1547     3.5252     0.0100 C.ar    
  12 C12           -1.2350     2.1134     0.0194 C.ar    
  13 C13           -0.0549     4.1972     0.0257 C.ar    
  14 C14           -1.2458     3.4925     0.0270 C.ar    
  15 N15            0.0926    -6.6792    -0.0350 N.am    
  16 C16            1.1946    -7.4404    -0.0549 C.2     
  17 N17            0.9455    -8.7565    -0.0588 N.am    
  18 C18           -0.5088    -8.9730    -0.0394 C.3     
  19 C19           -1.0940    -7.5476    -0.0167 C.3     
  20 O20            2.3191    -6.9785    -0.0687 O.2     
  21 C21           -0.9569    -9.7232    -1.2953 C.3     
  22 C22           -0.9212    -9.7374     1.2202 C.3     
  23 O23            1.9268    -9.7772    -0.0784 O.3     
  24 C24            2.3477   -10.2039     1.2188 C.3     
  25 H25           -2.1103    -2.8414     0.0073 H       
  26 H26            2.1905    -2.7828    -0.0446 H       
  27 H27            2.1259     1.6230    -0.0092 H       
  28 H28            2.0801     4.0818     0.0042 H       
  29 H29           -2.1652     1.5647     0.0204 H       
  30 H30           -0.0695     5.2771     0.0324 H       
  31 H31           -2.1861     4.0237     0.0392 H       
  32 H32           -1.6779    -7.3881     0.8898 H       
  33 H33           -1.7044    -7.3705    -0.9022 H       
  34 H34           -0.4758   -10.7008    -1.3257 H       
  35 H35           -2.0392    -9.8514    -1.2753 H       
  36 H36           -0.6750    -9.1519    -2.1798 H       
  37 H37           -0.6143    -9.1760     2.1027 H       
  38 H38           -2.0037    -9.8654     1.2294 H       
  39 H39           -0.4396   -10.7152     1.2259 H       
  40 H40            3.0995   -10.9866     1.1177 H       
  41 H41            2.7738    -9.3584     1.7589 H       
  42 H42            1.4908   -10.5921     1.7694 H       
@<TRIPOS>BOND
   1    1    2 1
   2    1   10 ar
   3    1   12 ar
   4    2    3 3
   5    3    4 1
   6    4    5 ar
   7    4    8 ar
   8    5    9 ar
   9    5   25 1
  10    6    7 ar
  11    6   15 1
  12    6    9 ar
  13    7    8 ar
  14    8   26 1
  15   10   11 ar
  16   10   27 1
  17   11   13 ar
  18   11   28 1
  19   12   14 ar
  20   12   29 1
  21   13   14 ar
  22   13   30 1
  23   14   31 1
  24   15   16 am
  25   15   19 1
  26   16   17 am
  27   16   20 2
  28   17   18 1
  29   17   23 1
  30   18   19 1
  31   18   21 1
  32   18   22 1
  33   19   32 1
  34   19   33 1
  35   21   34 1
  36   21   35 1
  37   21   36 1
  38   22   37 1
  39   22   38 1
  40   22   39 1
  41   23   24 1
  42   24   40 1
  43   24   41 1
  44   24   42 1

#	End of record

