#	Name: ASD00510025
#	Creating user name:	WinNT
#	Creation time:	15. 06. 2019 18:36

#	Modifying user name:	WinNT
#	Modification time:	15. 06. 2019 18:36

#	Program:	/corina/corina34_cracker 3.40 0067  02.08.2006

@<TRIPOS>MOLECULE
ASD00510025
  49   52    0    0    0
SMALL
NO_CHARGES


@<TRIPOS>ATOM
   1 C1            -0.0169     1.3950     0.0097 C.ar    
   2 C2             0.0021    -0.0041     0.0020 C.ar    
   3 C3             1.1966    -0.6621    -0.0129 C.ar    
   4 C4             2.3990     0.0399    -0.0205 C.ar    
   5 C5             2.4160     1.4018    -0.0129 C.ar    
   6 C6             1.2037     2.1121     0.0019 C.ar    
   7 C7             1.1824     3.5187     0.0101 C.ar    
   8 C8             0.0050     4.1974     0.0259 C.ar    
   9 C9            -1.2232     3.5377     0.0342 C.ar    
  10 C10           -1.2755     2.1410     0.0197 C.ar    
  11 N11           -2.4679     1.4909     0.0218 N.2     
  12 N12           -3.5689     2.1629     0.0306 N.2     
  13 C13           -4.7644     1.5111     0.0328 C.ar    
  14 C14           -7.2429     1.5399     0.0451 C.ar    
  15 C15           -7.2184     0.1347     0.0379 C.ar    
  16 C16           -6.0359    -0.5398     0.0336 C.ar    
  17 C17           -4.8156     0.1212     0.0314 C.ar    
  18 C18           -6.0221     2.2575     0.0427 C.ar    
  19 C19           -6.0421     3.6568     0.0504 C.ar    
  20 C20           -7.2369     4.3136     0.0600 C.ar    
  21 C21           -8.4394     3.6111     0.0627 C.ar    
  22 C22           -8.4560     2.2496     0.0559 C.ar    
  23 O23           -2.3743     4.2556     0.0504 O.3     
  24 S24            0.0315     5.9592     0.0367 S.o2    
  25 O25            0.1776     6.3666    -1.3168 O.2     
  26 O26           -1.0508     6.3717     0.8600 O.2     
  27 O27            1.3042     6.3862     0.7539 O.3     
  28 S28            3.9214    -0.8469    -0.0397 S.o2    
  29 O29            4.9023     0.0281     0.5002 O.2     
  30 O30            3.6443    -2.1317     0.5005 O.2     
  31 O31            4.2969    -1.0659    -1.4983 O.3     
  32 S32           -8.7343    -0.7635     0.0408 S.o2    
  33 O33           -8.9946    -1.1068     1.3949 O.2     
  34 O34           -9.6423    -0.0208    -0.7611 O.2     
  35 O35           -8.4836    -2.0727    -0.6939 O.3     
  36 H36           -0.9240    -0.5598     0.0082 H       
  37 H37            1.2100    -1.7420    -0.0185 H       
  38 H38            3.3563     1.9330    -0.0183 H       
  39 H39            2.1133     4.0661     0.0041 H       
  40 H40           -6.0477    -1.6197     0.0281 H       
  41 H41           -3.8980    -0.4485     0.0282 H       
  42 H42           -5.1164     4.2132     0.0491 H       
  43 H43           -7.2509     5.3935     0.0659 H       
  44 H44           -9.3728     4.1544     0.0707 H       
  45 H45           -9.3961     1.7179     0.0578 H       
  46 H46           -2.7170     4.4693    -0.8282 H       
  47 H47            1.4180     7.3445     0.8159 H       
  48 H48            5.1255    -1.5485    -1.6230 H       
  49 H49           -9.2596    -2.6470    -0.7501 H       
@<TRIPOS>BOND
   1    1    2 ar
   2    1    6 ar
   3    1   10 ar
   4    2    3 ar
   5    2   36 1
   6    3    4 ar
   7    3   37 1
   8    4    5 ar
   9    4   28 1
  10    5    6 ar
  11    5   38 1
  12    6    7 ar
  13    7    8 ar
  14    7   39 1
  15    8    9 ar
  16    8   24 1
  17    9   10 ar
  18    9   23 1
  19   10   11 1
  20   11   12 2
  21   12   13 1
  22   13   18 ar
  23   13   17 ar
  24   14   15 ar
  25   14   18 ar
  26   14   22 ar
  27   15   16 ar
  28   15   32 1
  29   16   17 ar
  30   16   40 1
  31   17   41 1
  32   18   19 ar
  33   19   20 ar
  34   19   42 1
  35   20   21 ar
  36   20   43 1
  37   21   22 ar
  38   21   44 1
  39   22   45 1
  40   23   46 1
  41   24   25 2
  42   24   26 2
  43   24   27 1
  44   27   47 1
  45   28   29 2
  46   28   30 2
  47   28   31 1
  48   31   48 1
  49   32   33 2
  50   32   34 2
  51   32   35 1
  52   35   49 1

#	End of record

