#	Name: ASD03621010
#	Creating user name:	WinNT
#	Creation time:	15. 06. 2019 20:43

#	Modifying user name:	WinNT
#	Modification time:	15. 06. 2019 20:43

#	Program:	/corina/corina34_cracker 3.40 0067  02.08.2006

@<TRIPOS>MOLECULE
ASD03621010
  83   86    0    0    0
SMALL
NO_CHARGES


@<TRIPOS>ATOM
   1 C1             8.8328     6.2267     4.3841 C.ar    
   2 C2            10.0687     6.6124     3.8997 C.ar    
   3 C3            10.3738     6.4337     2.5634 C.ar    
   4 C4             9.4430     5.8689     1.7115 C.ar    
   5 C5             8.2074     5.4824     2.1961 C.ar    
   6 C6             7.9019     5.6624     3.5322 C.ar    
   7 C7             9.7752     5.6750     0.2544 C.3     
   8 C8            10.4039     4.3195     0.0586 C.2     
   9 N9            10.7858     3.9253    -1.1724 N.am    
  10 O10           10.5663     3.5834     1.0086 O.2     
  11 C11            9.3418     0.1348    -4.0092 C.2     
  12 N12           10.3964     0.7130    -4.6174 N.am    
  13 O13            9.0478    -1.0133    -4.2668 O.2     
  14 C14           11.1877    -0.0453    -5.5895 C.3     
  15 C15           12.5804     0.5264    -5.6589 C.2     
  16 N16           13.4904    -0.0153    -6.4924 N.am    
  17 O17           12.8822     1.4739    -4.9647 O.2     
  18 C18           10.5289     0.0482    -6.9672 C.3     
  19 C19            9.1852    -0.6331    -6.9287 C.ar    
  20 C20           14.8084     0.6066    -6.6421 C.3     
  21 C21           15.0745     0.8879    -8.1222 C.3     
  22 C22           15.8829    -0.3389    -6.1014 C.3     
  23 C23           15.6931    -0.5188    -4.6173 C.ar    
  24 C24           14.8868    -1.5361    -4.1419 C.ar    
  25 C25           14.7127    -1.7010    -2.7805 C.ar    
  26 C26           15.3452    -0.8491    -1.8945 C.ar    
  27 C27           16.1523     0.1675    -2.3699 C.ar    
  28 C28           16.3298     0.3298    -3.7312 C.ar    
  29 C29            8.5278     0.9149    -3.0092 C.3     
  30 C30            8.0489     0.0792    -6.5959 C.ar    
  31 N31            6.8696    -0.5101    -6.5601 N.ar    
  32 C32            6.7258    -1.7910    -6.8379 C.ar    
  33 C33            7.8173    -2.5672    -7.1794 C.ar    
  34 C34            9.0727    -1.9815    -7.2323 C.ar    
  35 C35            7.4717     1.7851    -3.7352 C.3     
  36 C36            7.2195     2.9046    -2.6910 C.3     
  37 C37            8.6132     3.1100    -2.0610 C.3     
  38 N38            9.3825     1.8786    -2.2921 N.am    
  39 N39           11.3703     2.6651    -1.3544 N.am    
  40 C40           10.6575     1.6657    -1.9108 C.2     
  41 O41           11.1648     0.5720    -2.0688 O.2     
  42 C42           12.7563     2.4337    -0.9400 C.3     
  43 C43           14.0995     1.9236    -8.6199 C.2     
  44 O44           13.3473     2.4665    -7.8458 O.2     
  45 O45           14.0667     2.2430    -9.9233 O.3     
  46 H46            8.5961     6.3622     5.4291 H       
  47 H47           10.7959     7.0536     4.5653 H       
  48 H48           11.3391     6.7356     2.1848 H       
  49 H49            7.4800     5.0418     1.5304 H       
  50 H50            6.9364     5.3608     3.9107 H       
  51 H51            8.8628     5.7414    -0.3382 H       
  52 H52           10.4732     6.4489    -0.0652 H       
  53 H53           10.6560     4.5140    -1.9323 H       
  54 H54           10.6316     1.6313    -4.4114 H       
  55 H55           11.2386    -1.0895    -5.2811 H       
  56 H56           13.2728    -0.8170    -6.9933 H       
  57 H57           10.3973     1.0961    -7.2367 H       
  58 H58           11.1629    -0.4405    -7.7071 H       
  59 H59           14.8339     1.5426    -6.0840 H       
  60 H60           16.0922     1.2587    -8.2444 H       
  61 H61           14.9516    -0.0315    -8.6946 H       
  62 H62           15.7995    -1.3056    -6.5982 H       
  63 H63           16.8690     0.0842    -6.2930 H       
  64 H64           14.3926    -2.2017    -4.8341 H       
  65 H65           14.0821    -2.4953    -2.4091 H       
  66 H66           15.2086    -0.9776    -0.8309 H       
  67 H67           16.6462     0.8334    -1.6777 H       
  68 H68           16.9604     1.1241    -4.1026 H       
  69 H69            8.0430     0.2383    -2.3055 H       
  70 H70            8.1275     1.1307    -6.3622 H       
  71 H71            5.7439    -2.2389    -6.7977 H       
  72 H72            7.6933    -3.6160    -7.4055 H       
  73 H73            9.9435    -2.5633    -7.4962 H       
  74 H74            7.8743     2.1973    -4.6605 H       
  75 H75            6.5615     1.2166    -3.9261 H       
  76 H76            6.8786     3.8176    -3.1792 H       
  77 H77            6.5012     2.5765    -1.9397 H       
  78 H78            9.1137     3.9542    -2.5352 H       
  79 H79            8.5134     3.2892    -0.9905 H       
  80 H80           12.7737     2.0904     0.0944 H       
  81 H81           13.2058     1.6761    -1.5819 H       
  82 H82           13.3205     3.3625    -1.0241 H       
  83 H83           13.4244     2.9128   -10.1951 H       
@<TRIPOS>BOND
   1    1    2 ar
   2    1    6 ar
   3    1   46 1
   4    2    3 ar
   5    2   47 1
   6    3    4 ar
   7    3   48 1
   8    4    5 ar
   9    4    7 1
  10    5    6 ar
  11    5   49 1
  12    6   50 1
  13    7    8 1
  14    7   51 1
  15    7   52 1
  16    8    9 am
  17    8   10 2
  18    9   39 1
  19    9   53 1
  20   11   12 am
  21   11   13 2
  22   11   29 1
  23   12   14 1
  24   12   54 1
  25   14   15 1
  26   14   18 1
  27   14   55 1
  28   15   16 am
  29   15   17 2
  30   16   20 1
  31   16   56 1
  32   18   19 1
  33   18   57 1
  34   18   58 1
  35   19   30 ar
  36   19   34 ar
  37   20   21 1
  38   20   22 1
  39   20   59 1
  40   21   43 1
  41   21   60 1
  42   21   61 1
  43   22   23 1
  44   22   62 1
  45   22   63 1
  46   23   24 ar
  47   23   28 ar
  48   24   25 ar
  49   24   64 1
  50   25   26 ar
  51   25   65 1
  52   26   27 ar
  53   26   66 1
  54   27   28 ar
  55   27   67 1
  56   28   68 1
  57   29   35 1
  58   29   38 1
  59   29   69 1
  60   30   31 ar
  61   30   70 1
  62   31   32 ar
  63   32   33 ar
  64   32   71 1
  65   33   34 ar
  66   33   72 1
  67   34   73 1
  68   35   36 1
  69   35   74 1
  70   35   75 1
  71   36   37 1
  72   36   76 1
  73   36   77 1
  74   37   38 1
  75   37   78 1
  76   37   79 1
  77   38   40 am
  78   39   40 am
  79   39   42 1
  80   40   41 2
  81   42   80 1
  82   42   81 1
  83   42   82 1
  84   43   44 2
  85   43   45 1
  86   45   83 1

#	End of record

