#	Name: ASD00310101
#	Creating user name:	WinNT
#	Creation time:	15. 06. 2019 18:33

#	Modifying user name:	WinNT
#	Modification time:	15. 06. 2019 18:33

#	Program:	/corina/corina34_cracker 3.40 0067  02.08.2006

@<TRIPOS>MOLECULE
ASD00310101
  47   50    0    0    0
SMALL
NO_CHARGES


@<TRIPOS>ATOM
   1 N1            -0.0174     1.3562     0.0119 N.pl3   
   2 C2            -0.0001     0.0023    -0.0056 C.2     
   3 C3             1.2897    -0.4428    -0.0256 C.2     
   4 C4             2.1460     0.7588    -0.0198 C.ar    
   5 C5             3.5217     0.9622    -0.0326 C.ar    
   6 C6             4.0237     2.2572    -0.0217 C.ar    
   7 C7             3.1471     3.3476     0.0020 C.ar    
   8 C8             1.7854     3.1485     0.0147 C.ar    
   9 C9             1.2689     1.8555     0.0039 C.ar    
  10 C10            1.7367    -1.8401    -0.0484 C.2     
  11 O11            2.9249    -2.0981    -0.0645 O.2     
  12 O12            0.8299    -2.8381    -0.0516 O.3     
  13 C13            5.4897     2.4845    -0.0346 C.ar    
  14 C14            6.0511     3.3693    -0.9537 C.ar    
  15 C15            7.4143     3.5784    -0.9633 C.ar    
  16 C16            8.2271     2.9084    -0.0592 C.ar    
  17 C17            7.6710     2.0262     0.8571 C.ar    
  18 C18            6.3077     1.8179     0.8760 C.ar    
  19 O19            9.5700     3.1161    -0.0714 O.3     
  20 C20           10.0891     3.9430    -1.1149 C.3     
  21 C21           11.5555     3.5864    -1.3664 C.3     
  22 C22           12.1113     4.4717    -2.4836 C.3     
  23 C23           12.0075     5.9409    -2.0694 C.3     
  24 C24           10.5411     6.2976    -1.8179 C.3     
  25 C25            9.9853     5.4122    -0.7007 C.3     
  26 O26           11.6524     2.2142    -1.7533 O.3     
  27 Cl27           3.7819     4.9633     0.0161 Cl      
  28 H28           -0.8213     1.8989     0.0241 H       
  29 H29           -0.8754    -0.6302    -0.0035 H       
  30 H30            4.1956     0.1184    -0.0505 H       
  31 H31            1.1166     3.9963     0.0333 H       
  32 H32            1.1723    -3.7423    -0.0669 H       
  33 H33            5.4193     3.8903    -1.6578 H       
  34 H34            7.8499     4.2639    -1.6753 H       
  35 H35            8.3060     1.5058     1.5588 H       
  36 H36            5.8751     1.1351     1.5922 H       
  37 H37            9.5142     3.7811    -2.0267 H       
  38 H38           12.1304     3.7483    -0.4546 H       
  39 H39           13.1560     4.2177    -2.6628 H       
  40 H40           11.5364     4.3098    -3.3955 H       
  41 H41           12.5824     6.1029    -1.1576 H       
  42 H42           12.4035     6.5717    -2.8654 H       
  43 H43           10.4671     7.3442    -1.5228 H       
  44 H44            9.9662     6.1356    -2.7298 H       
  45 H45            8.9406     5.6663    -0.5215 H       
  46 H46           10.5601     5.5741     0.2111 H       
  47 H47           12.5560     1.9180    -1.9292 H       
@<TRIPOS>BOND
   1    1    2 1
   2    1    9 1
   3    1   28 1
   4    2    3 2
   5    2   29 1
   6    3    4 1
   7    3   10 1
   8    4    5 ar
   9    4    9 ar
  10    5    6 ar
  11    5   30 1
  12    6    7 ar
  13    6   13 1
  14    7    8 ar
  15    7   27 1
  16    8    9 ar
  17    8   31 1
  18   10   11 2
  19   10   12 1
  20   12   32 1
  21   13   14 ar
  22   13   18 ar
  23   14   15 ar
  24   14   33 1
  25   15   16 ar
  26   15   34 1
  27   16   17 ar
  28   16   19 1
  29   17   18 ar
  30   17   35 1
  31   18   36 1
  32   19   20 1
  33   20   21 1
  34   20   25 1
  35   20   37 1
  36   21   22 1
  37   21   26 1
  38   21   38 1
  39   22   23 1
  40   22   39 1
  41   22   40 1
  42   23   24 1
  43   23   41 1
  44   23   42 1
  45   24   25 1
  46   24   43 1
  47   24   44 1
  48   25   45 1
  49   25   46 1
  50   26   47 1

#	End of record

