#	Name: ASD01903222
#	Creating user name:	WinNT
#	Creation time:	15. 06. 2019 19:54

#	Modifying user name:	WinNT
#	Modification time:	15. 06. 2019 19:54

#	Program:	/corina/corina34_cracker 3.40 0067  02.08.2006

@<TRIPOS>MOLECULE
ASD01903222
  34   36    0    0    0
SMALL
NO_CHARGES


@<TRIPOS>ATOM
   1 S1            -0.1287     1.5007     0.0548 S.3     
   2 C2             0.0182    -0.2019     0.0767 C.2     
   3 N3             1.2661    -0.5478     0.0403 N.2     
   4 C4             2.1593     0.4328    -0.0052 C.2     
   5 C5             1.6239     1.6663    -0.0067 C.2     
   6 N6            -1.0479    -1.0880     0.1265 N.pl3   
   7 C7            -2.3448    -0.6080     0.2804 C.ar    
   8 C8             3.6235     0.1889    -0.0505 C.2     
   9 C9             4.2647    -1.0669     0.0479 C.2     
  10 N10            5.5579    -0.8685    -0.0347 N.2     
  11 N11            5.7874     0.5042    -0.1871 N.pl3   
  12 C12            4.5937     1.1346    -0.2005 C.2     
  13 N13           -2.5461     0.6846     0.4850 N.ar    
  14 C14           -3.7596     1.1805     0.6355 C.ar    
  15 C15           -4.8702     0.3622     0.5849 C.ar    
  16 C16           -4.7024    -0.9999     0.3721 C.ar    
  17 C17           -3.4188    -1.4897     0.2122 C.ar    
  18 N18            3.6309    -2.3037     0.2064 N.3     
  19 C19            4.0367    -3.2423    -0.8483 C.3     
  20 C20            3.8942    -2.8633     1.5389 C.3     
  21 H21            2.1726     2.5960    -0.0401 H       
  22 H22           -0.8893    -2.0422     0.0540 H       
  23 H23            6.6553     0.9290    -0.2725 H       
  24 H24            4.4361     2.1980    -0.3043 H       
  25 H25           -3.8855     2.2403     0.8008 H       
  26 H26           -5.8595     0.7770     0.7099 H       
  27 H27           -5.5551    -1.6612     0.3288 H       
  28 H28           -3.2521    -2.5435     0.0447 H       
  29 H29            5.1152    -3.3940    -0.8042 H       
  30 H30            3.5293    -4.1957    -0.7012 H       
  31 H31            3.7668    -2.8335    -1.8220 H       
  32 H32            3.4440    -2.2228     2.2974 H       
  33 H33            3.4636    -3.8624     1.6050 H       
  34 H34            4.9703    -2.9197     1.7031 H       
@<TRIPOS>BOND
   1    1    2 1
   2    1    5 1
   3    2    3 2
   4    2    6 1
   5    3    4 1
   6    4    5 2
   7    4    8 1
   8    5   21 1
   9    6    7 1
  10    6   22 1
  11    7   13 ar
  12    7   17 ar
  13    8    9 1
  14    8   12 2
  15    9   10 2
  16    9   18 1
  17   10   11 1
  18   11   12 1
  19   11   23 1
  20   12   24 1
  21   13   14 ar
  22   14   15 ar
  23   14   25 1
  24   15   16 ar
  25   15   26 1
  26   16   17 ar
  27   16   27 1
  28   17   28 1
  29   18   19 1
  30   18   20 1
  31   19   29 1
  32   19   30 1
  33   19   31 1
  34   20   32 1
  35   20   33 1
  36   20   34 1

#	End of record

