#	Name: ASD00100104
#	Creating user name:	WinNT
#	Creation time:	15. 06. 2019 18:30

#	Modifying user name:	WinNT
#	Modification time:	15. 06. 2019 18:30

#	Program:	/corina/corina34_cracker 3.40 0067  02.08.2006

@<TRIPOS>MOLECULE
ASD00100104
  36   37    0    0    0
SMALL
NO_CHARGES


@<TRIPOS>ATOM
   1 C1            -0.0184     1.5028     0.0103 C.2     
   2 C2             0.0021    -0.0041     0.0020 C.3     
   3 N3            -1.3761    -0.5125     0.0124 N.3     
   4 C4            -1.3954    -1.9814     0.0047 C.3     
   5 C5            -2.8226    -2.4651     0.0158 C.ar    
   6 C6            -3.5584    -2.4841    -1.1604 C.ar    
   7 C7            -4.8719    -2.9298    -1.1470 C.ar    
   8 C8            -5.4442    -3.3537     0.0370 C.ar    
   9 C9            -4.7091    -3.3334     1.2076 C.ar    
  10 C10           -3.3975    -2.8953     1.1957 C.ar    
  11 O11           -2.9934    -2.0662    -2.3236 O.3     
  12 C12           -3.8101    -2.1133    -3.4953 C.3     
  13 C13            1.2455     2.2556     0.0023 C.ar    
  14 C14            1.2304     3.6544     0.0099 C.ar    
  15 C15            2.4186     4.3529     0.0028 C.ar    
  16 C16            3.6256     3.6732    -0.0119 C.ar    
  17 C17            3.6483     2.2882    -0.0195 C.ar    
  18 C18            2.4682     1.5761    -0.0072 C.ar    
  19 Br19           5.2502     4.6409    -0.0222 Br      
  20 O20           -1.0766     2.0947     0.0185 O.2     
  21 H21            0.5123    -0.3556    -0.8948 H       
  22 H22            0.5293    -0.3651     0.8851 H       
  23 H23           -1.8899    -0.1483     0.8007 H       
  24 H24           -0.8949    -2.3466    -0.8920 H       
  25 H25           -0.8779    -2.3562     0.8878 H       
  26 H26           -5.4468    -2.9452    -2.0611 H       
  27 H27           -6.4668    -3.7009     0.0480 H       
  28 H28           -5.1585    -3.6645     2.1322 H       
  29 H29           -2.8238    -2.8849     2.1106 H       
  30 H30           -3.2389    -1.7534    -4.3510 H       
  31 H31           -4.1271    -3.1404    -3.6761 H       
  32 H32           -4.6872    -1.4822    -3.3524 H       
  33 H33            0.2902     4.1856     0.0210 H       
  34 H34            2.4085     5.4329     0.0084 H       
  35 H35            4.5930     1.7650    -0.0310 H       
  36 H36            2.4875     0.4963    -0.0087 H       
@<TRIPOS>BOND
   1    1    2 1
   2    1   13 1
   3    1   20 2
   4    2    3 1
   5    2   21 1
   6    2   22 1
   7    3    4 1
   8    3   23 1
   9    4    5 1
  10    4   24 1
  11    4   25 1
  12    5    6 ar
  13    5   10 ar
  14    6    7 ar
  15    6   11 1
  16    7    8 ar
  17    7   26 1
  18    8    9 ar
  19    8   27 1
  20    9   10 ar
  21    9   28 1
  22   10   29 1
  23   11   12 1
  24   12   30 1
  25   12   31 1
  26   12   32 1
  27   13   14 ar
  28   13   18 ar
  29   14   15 ar
  30   14   33 1
  31   15   16 ar
  32   15   34 1
  33   16   17 ar
  34   16   19 1
  35   17   18 ar
  36   17   35 1
  37   18   36 1

#	End of record

