#	Name: ASD01140347
#	Creating user name:	WinNT
#	Creation time:	15. 06. 2019 19:00

#	Modifying user name:	WinNT
#	Modification time:	15. 06. 2019 19:00

#	Program:	/corina/corina34_cracker 3.40 0067  02.08.2006

@<TRIPOS>MOLECULE
ASD01140347
  56   59    0    0    0
SMALL
NO_CHARGES


@<TRIPOS>ATOM
   1 C1             0.0095     1.3691     0.1123 C.ar    
   2 C2             0.0300    -0.0279     0.0915 C.ar    
   3 C3             1.2435    -0.7036     0.0632 C.ar    
   4 C4             2.4514     0.0065     0.0557 C.ar    
   5 C5             2.4142     1.4034     0.0529 C.ar    
   6 C6             1.1934     2.0714     0.0927 C.ar    
   7 C7             3.6990    -0.7649     0.0828 C.2     
   8 N8             4.7799    -0.5398    -0.5758 N.2     
   9 C9             4.8922     0.5806    -1.5169 C.3     
  10 C10            4.6881     1.8547    -0.7388 C.2     
  11 N11            3.5798     2.1708    -0.0226 N.pl3   
  12 C12            3.8055     3.3735     0.5723 C.2     
  13 C13            5.5582     2.8923    -0.6111 C.2     
  14 N14            4.9798     3.8077     0.2113 N.2     
  15 C15            3.7155    -1.9467     0.9786 C.ar    
  16 N16            2.6379    -2.2459     1.6930 N.ar    
  17 C17            4.8599    -2.7366     1.0587 C.ar    
  18 C18            4.8602    -3.8377     1.8996 C.ar    
  19 C19            3.7151    -4.1111     2.6319 C.ar    
  20 C20            2.6111    -3.2857     2.4992 C.ar    
  21 C21           -1.1991    -0.7626     0.0998 C.1     
  22 C22           -2.2068    -1.3650     0.1066 C.1     
  23 C23            6.8829     3.0036    -1.2460 C.2     
  24 O24            7.3327     2.0697    -1.8821 O.2     
  25 N25            7.5963     4.1403    -1.1219 N.am    
  26 C26            8.9613     4.2097    -1.6492 C.3     
  27 C27            7.0068     5.3065    -0.4596 C.3     
  28 Si28          -3.8376    -2.3398     0.1176 Si      
  29 C29           -3.4698    -4.1659     0.0852 C.3     
  30 C30           -4.7975    -1.9271     1.6601 C.3     
  31 C31           -4.8447    -1.8825    -1.3815 C.3     
  32 H32           -0.9325     1.8965     0.1392 H       
  33 H33            1.2560    -1.7834     0.0473 H       
  34 H34            1.1749     3.1511     0.1082 H       
  35 H35            5.8817     0.5814    -1.9740 H       
  36 H36            4.1277     0.4927    -2.2889 H       
  37 H37            3.1229     3.8847     1.2350 H       
  38 H38            5.7345    -2.4943     0.4733 H       
  39 H39            5.7325    -4.4690     1.9824 H       
  40 H40            3.6829    -4.9621     3.2962 H       
  41 H41            1.7176    -3.4955     3.0684 H       
  42 H42            9.2246     3.2541    -2.1029 H       
  43 H43            9.0211     4.9972    -2.4005 H       
  44 H44            9.6540     4.4292    -0.8368 H       
  45 H45            7.1404     5.2183     0.6185 H       
  46 H46            7.4985     6.2126    -0.8138 H       
  47 H47            5.9428     5.3564    -0.6910 H       
  48 H48           -2.8806    -4.4335     0.9623 H       
  49 H49           -4.4053    -4.7251     0.0915 H       
  50 H50           -2.9082    -4.4074    -0.8173 H       
  51 H51           -5.0127    -0.8587     1.6791 H       
  52 H52           -5.7330    -2.4863     1.6664 H       
  53 H53           -4.2083    -2.1946     2.5372 H       
  54 H54           -4.2831    -2.1240    -2.2839 H       
  55 H55           -5.7802    -2.4417    -1.3752 H       
  56 H56           -5.0599    -0.8141    -1.3625 H       
@<TRIPOS>BOND
   1    1    2 ar
   2    1    6 ar
   3    1   32 1
   4    2    3 ar
   5    2   21 1
   6    3    4 ar
   7    3   33 1
   8    4    5 ar
   9    4    7 1
  10    5    6 ar
  11    5   11 1
  12    6   34 1
  13    7    8 2
  14    7   15 1
  15    8    9 1
  16    9   10 1
  17    9   35 1
  18    9   36 1
  19   10   11 1
  20   10   13 2
  21   11   12 1
  22   12   14 2
  23   12   37 1
  24   13   14 1
  25   13   23 1
  26   15   16 ar
  27   15   17 ar
  28   16   20 ar
  29   17   18 ar
  30   17   38 1
  31   18   19 ar
  32   18   39 1
  33   19   20 ar
  34   19   40 1
  35   20   41 1
  36   21   22 3
  37   22   28 1
  38   23   24 2
  39   23   25 am
  40   25   26 1
  41   25   27 1
  42   26   42 1
  43   26   43 1
  44   26   44 1
  45   27   45 1
  46   27   46 1
  47   27   47 1
  48   28   29 1
  49   28   30 1
  50   28   31 1
  51   29   48 1
  52   29   49 1
  53   29   50 1
  54   30   51 1
  55   30   52 1
  56   30   53 1
  57   31   54 1
  58   31   55 1
  59   31   56 1

#	End of record

