#	Name: ASD01200431
#	Creating user name:	WinNT
#	Creation time:	15. 06. 2019 19:09

#	Modifying user name:	WinNT
#	Modification time:	15. 06. 2019 19:09

#	Program:	/corina/corina34_cracker 3.40 0067  02.08.2006

@<TRIPOS>MOLECULE
ASD01200431
  69   73    0    0    0
SMALL
NO_CHARGES


@<TRIPOS>ATOM
   1 C1             0.9520     1.6210     0.9245 C.2     
   2 N2             2.0676    -1.9592     0.5470 N.am    
   3 C3             2.2023    -0.5070     0.6853 C.3     
   4 C4             0.8133     0.1271     0.7822 C.3     
   5 O5             2.0492     2.1266     0.9461 O.2     
   6 O6            -0.1436     2.3905     1.0216 O.3     
   7 C7             3.1675    -2.7313     0.4439 C.2     
   8 C8             3.0315    -4.1969     0.3044 C.ar    
   9 C9             4.1685    -4.9993     0.1974 C.ar    
  10 C10            4.0346    -6.3662     0.0679 C.ar    
  11 C11            2.7767    -6.9420     0.0435 C.ar    
  12 C12            1.6456    -6.1522     0.1491 C.ar    
  13 C13            1.7656    -4.7846     0.2849 C.ar    
  14 O14            4.2712    -2.2227     0.4657 O.2     
  15 C15            2.6381    -8.4358    -0.0992 C.3     
  16 C16            2.3777    -9.0573     1.2744 C.3     
  17 C17            2.2604   -10.5904     1.2447 C.3     
  18 C18            3.0604   -10.5985     2.5580 C.3     
  19 C19            3.6511    -9.2496     2.1149 C.3     
  20 C20            2.1851   -10.5029     3.8093 C.3     
  21 C21            4.0942   -11.7235     2.6389 C.3     
  22 N22            1.5174    -8.7390    -0.9927 N.pl3   
  23 C23            2.9405    -8.4135    -2.9211 C.ar    
  24 C24            1.7182    -8.7830    -2.3759 C.ar    
  25 C25            0.6943    -9.1985    -3.2248 C.ar    
  26 C26            0.9383    -9.2265    -4.5866 C.ar    
  27 C27            2.1868    -8.8423    -5.0591 C.ar    
  28 N28            3.1364    -8.4531    -4.2242 N.ar    
  29 N29            2.4431    -8.8673    -6.4348 N.pl3   
  30 N30            1.5418    -9.2531    -7.4355 N.2     
  31 C31            2.1427    -9.1434    -8.5927 C.2     
  32 C32            3.4458    -8.6846    -8.3710 C.2     
  33 C33            3.6080    -8.5162    -7.0382 C.2     
  34 C34            4.4842    -8.4195    -9.4305 C.3     
  35 C35            4.9046    -9.5934   -10.3170 C.3     
  36 C36            4.0330    -8.4748   -10.8914 C.3     
  37 H37            1.1867    -2.3651     0.5297 H       
  38 H38            2.7696    -0.2790     1.5877 H       
  39 H39            2.7249    -0.1063    -0.1833 H       
  40 H40            0.2908    -0.2736     1.6508 H       
  41 H41            0.2461    -0.1008    -0.1202 H       
  42 H42           -0.0044     3.3432     1.1113 H       
  43 H43            5.1509    -4.5510     0.2156 H       
  44 H44            4.9136    -6.9883    -0.0149 H       
  45 H45            0.6666    -6.6079     0.1294 H       
  46 H46            0.8820    -4.1697     0.3717 H       
  47 H47            3.5570    -8.8478    -0.5161 H       
  48 H48            1.5668    -8.5678     1.8137 H       
  49 H49            1.2381   -10.9523     1.3538 H       
  50 H50            2.7872   -11.0524     0.4097 H       
  51 H51            4.5580    -9.3452     1.5179 H       
  52 H52            3.7514    -8.5292     2.9267 H       
  53 H53            1.5010   -11.3510     3.8399 H       
  54 H54            2.8177   -10.5143     4.6969 H       
  55 H55            1.6131    -9.5754     3.7826 H       
  56 H56            4.8095   -11.6190     1.8231 H       
  57 H57            4.6196   -11.6662     3.5923 H       
  58 H58            3.5902   -12.6866     2.5591 H       
  59 H59            0.6362    -8.9094    -0.6249 H       
  60 H60            3.7381    -8.0860    -2.2709 H       
  61 H61           -0.2669    -9.4920    -2.8293 H       
  62 H62            0.1677    -9.5435    -5.2736 H       
  63 H63            1.7071    -9.3686    -9.5549 H       
  64 H64            4.5027    -8.1681    -6.5436 H       
  65 H65            5.2489    -7.6888    -9.1669 H       
  66 H66            5.9457    -9.6349   -10.6371 H       
  67 H67            4.4301   -10.5575   -10.1340 H       
  68 H68            2.9851    -8.7029   -11.0861 H       
  69 H69            4.5007    -7.7803   -11.5892 H       
@<TRIPOS>BOND
   1    1    4 1
   2    1    5 2
   3    1    6 1
   4    2    3 1
   5    2    7 am
   6    2   37 1
   7    3    4 1
   8    3   38 1
   9    3   39 1
  10    4   40 1
  11    4   41 1
  12    6   42 1
  13    7    8 1
  14    7   14 2
  15    8    9 ar
  16    8   13 ar
  17    9   10 ar
  18    9   43 1
  19   10   11 ar
  20   10   44 1
  21   11   12 ar
  22   11   15 1
  23   12   13 ar
  24   12   45 1
  25   13   46 1
  26   15   16 1
  27   15   22 1
  28   15   47 1
  29   16   17 1
  30   16   19 1
  31   16   48 1
  32   17   18 1
  33   17   49 1
  34   17   50 1
  35   18   19 1
  36   18   20 1
  37   18   21 1
  38   19   51 1
  39   19   52 1
  40   20   53 1
  41   20   54 1
  42   20   55 1
  43   21   56 1
  44   21   57 1
  45   21   58 1
  46   22   24 1
  47   22   59 1
  48   23   24 ar
  49   23   28 ar
  50   23   60 1
  51   24   25 ar
  52   25   26 ar
  53   25   61 1
  54   26   27 ar
  55   26   62 1
  56   27   28 ar
  57   27   29 1
  58   29   30 1
  59   29   33 1
  60   30   31 2
  61   31   32 1
  62   31   63 1
  63   32   33 2
  64   32   34 1
  65   33   64 1
  66   34   35 1
  67   34   36 1
  68   34   65 1
  69   35   36 1
  70   35   66 1
  71   35   67 1
  72   36   68 1
  73   36   69 1

#	End of record

