#	Name: ASD03540456
#	Creating user name:	WinNT
#	Creation time:	15. 06. 2019 20:43

#	Modifying user name:	WinNT
#	Modification time:	15. 06. 2019 20:43

#	Program:	/corina/corina34_cracker 3.40 0067  02.08.2006

@<TRIPOS>MOLECULE
ASD03540456
  39   41    0    0    0
SMALL
NO_CHARGES


@<TRIPOS>ATOM
   1 N1            -0.0161     1.3395     0.0094 N.am    
   2 C2             0.0021    -0.0041     0.0020 C.2     
   3 N3             1.1389    -0.7173    -0.0126 N.am    
   4 C4             2.3459    -0.1107    -0.0209 C.2     
   5 C5             2.3856     1.3633    -0.0133 C.ar    
   6 C6             3.5869     2.0604    -0.0206 C.ar    
   7 C7             3.5657     3.4551    -0.0124 C.ar    
   8 C8             2.3429     4.1385     0.0033 C.ar    
   9 C9             1.1618     3.4521     0.0104 C.ar    
  10 C10            1.1635     2.0628     0.0020 C.ar    
  11 C11            4.8323     4.2113    -0.0199 C.2     
  12 O12            5.8932     3.6192    -0.0332 O.2     
  13 O13            4.8127     5.5585    -0.0121 O.3     
  14 O14            3.3720    -0.7627    -0.0337 O.2     
  15 O15           -1.0577    -0.5997     0.0093 O.2     
  16 C16            1.0696    -2.1807    -0.0194 C.3     
  17 C17            1.0320    -2.6753    -1.4424 C.ar    
  18 C18            2.2105    -2.9587    -2.1070 C.ar    
  19 C19            2.1760    -3.4123    -3.4123 C.ar    
  20 C20            0.9630    -3.5830    -4.0529 C.ar    
  21 C21           -0.2155    -3.3004    -3.3880 C.ar    
  22 C22           -0.1812    -2.8509    -2.0813 C.ar    
  23 N23            0.9262    -4.0678    -5.4510 N.pl3   
  24 O24            1.9646    -4.3164    -6.0369 O.2     
  25 O25           -0.1426    -4.2181    -6.0154 O.2     
  26 C26           -1.2992     2.0465     0.0193 C.3     
  27 H27            4.5268     1.5286    -0.0320 H       
  28 H28            2.3339     5.2185     0.0102 H       
  29 H29            0.2255     3.9901     0.0226 H       
  30 H30            5.6678     6.0101    -0.0175 H       
  31 H31            1.9463    -2.5883     0.4839 H       
  32 H32            0.1684    -2.5041     0.5016 H       
  33 H33            3.1582    -2.8254    -1.6065 H       
  34 H34            3.0968    -3.6331    -3.9318 H       
  35 H35           -1.1632    -3.4333    -3.8887 H       
  36 H36           -1.1021    -2.6336    -1.5606 H       
  37 H37           -2.1134     1.3218     0.0192 H       
  38 H38           -1.3653     2.6671     0.9130 H       
  39 H39           -1.3737     2.6767    -0.8669 H       
@<TRIPOS>BOND
   1    1    2 am
   2    1   10 1
   3    1   26 1
   4    2    3 am
   5    2   15 2
   6    3    4 am
   7    3   16 1
   8    4    5 1
   9    4   14 2
  10    5    6 ar
  11    5   10 ar
  12    6    7 ar
  13    6   27 1
  14    7    8 ar
  15    7   11 1
  16    8    9 ar
  17    8   28 1
  18    9   10 ar
  19    9   29 1
  20   11   12 2
  21   11   13 1
  22   13   30 1
  23   16   17 1
  24   16   31 1
  25   16   32 1
  26   17   18 ar
  27   17   22 ar
  28   18   19 ar
  29   18   33 1
  30   19   20 ar
  31   19   34 1
  32   20   21 ar
  33   20   23 1
  34   21   22 ar
  35   21   35 1
  36   22   36 1
  37   23   24 2
  38   23   25 2
  39   26   37 1
  40   26   38 1
  41   26   39 1

#	End of record

