#	Name: ASD03731324
#	Creating user name:	WinNT
#	Creation time:	15. 06. 2019 20:45

#	Modifying user name:	WinNT
#	Modification time:	15. 06. 2019 20:45

#	Program:	/corina/corina34_cracker 3.40 0067  02.08.2006

@<TRIPOS>MOLECULE
ASD03731324
  59   65    0    0    0
SMALL
NO_CHARGES


@<TRIPOS>ATOM
   1 C1            -0.0183     1.4732     0.0190 C.2     
   2 C2             0.0010    -0.0045    -0.0105 C.ar    
   3 C3             1.2172    -0.6897    -0.0167 C.ar    
   4 C4             1.2281    -2.0689    -0.0438 C.ar    
   5 C5             0.0372    -2.7730    -0.0653 C.ar    
   6 C6            -1.1717    -2.1000    -0.0593 C.ar    
   7 C7            -1.1968    -0.7211    -0.0265 C.ar    
   8 O8             1.0264     2.0945     0.0379 O.2     
   9 N9            -1.1942     2.1319     0.0193 N.am    
  10 C10            0.0570    -4.2796    -0.0959 C.3     
  11 O11           -2.1568    -1.6256     6.2086 O.3     
  12 C12           -2.4065    -1.7317     7.6226 C.3     
  13 O13           -2.9083    -3.0718     7.7820 O.3     
  14 C14           -2.3672    -3.7897     6.7541 C.ar    
  15 C15           -1.9062    -2.8999     5.7865 C.ar    
  16 C16           -2.2275    -5.1526     6.5631 C.ar    
  17 C17           -1.6295    -5.6449     5.4070 C.ar    
  18 C18           -1.1804    -4.7465     4.4439 C.ar    
  19 C19           -1.3126    -3.3869     4.6341 C.ar    
  20 O20           -1.3816    -6.9334     5.0344 O.3     
  21 C21           -0.6173    -5.5712     3.3174 C.3     
  22 C22           -1.1479    -6.9806     3.6137 C.3     
  23 N23            0.0551    -4.7959     1.2751 N.am    
  24 C24           -1.0642    -5.0760     1.9721 C.2     
  25 C25            0.8816    -5.5347     3.2770 C.ar    
  26 C26            1.8661    -5.8602     4.1832 C.ar    
  27 C27            3.1986    -5.7143     3.8409 C.ar    
  28 C28            3.5393    -5.2402     2.5871 C.ar    
  29 C29            2.5569    -4.9119     1.6763 C.ar    
  30 C30            1.2130    -5.0560     2.0121 C.ar    
  31 O31           -2.2079    -4.9527     1.5879 O.2     
  32 C32           -1.2149     3.5279     0.1327 C.ar    
  33 C33           -2.3325     4.1675     0.6588 C.ar    
  34 C34           -2.3496     5.5455     0.7698 C.ar    
  35 C35           -1.2554     6.2877     0.3572 C.ar    
  36 C36           -0.1427     5.6520    -0.1665 C.ar    
  37 C37           -0.1184     4.2746    -0.2742 C.ar    
  38 F38           -1.2742     7.6342     0.4656 F       
  39 F39           -3.3999     3.4432     1.0602 F       
  40 H40            2.1474    -0.1413    -0.0007 H       
  41 H41            2.1684    -2.6003    -0.0486 H       
  42 H42           -2.0977    -2.6556    -0.0762 H       
  43 H43           -2.1411    -0.1971    -0.0173 H       
  44 H44           -2.0261     1.6392    -0.0590 H       
  45 H45           -0.8251    -4.6439    -0.6225 H       
  46 H46            0.9547    -4.6208    -0.6114 H       
  47 H47           -1.4827    -1.5993     8.1857 H       
  48 H48           -3.1545    -1.0030     7.9352 H       
  49 H49           -2.5849    -5.8392     7.3162 H       
  50 H50           -0.9527    -2.7003     3.8821 H       
  51 H51           -0.4002    -7.7350     3.3692 H       
  52 H52           -2.0769    -7.1657     3.0744 H       
  53 H53            1.5977    -6.2300     5.1617 H       
  54 H54            3.9710    -5.9703     4.5511 H       
  55 H55            4.5796    -5.1262     2.3201 H       
  56 H56            2.8309    -4.5418     0.6994 H       
  57 H57           -3.2167     6.0434     1.1781 H       
  58 H58            0.7091     6.2332    -0.4877 H       
  59 H59            0.7521     3.7796    -0.6788 H       
@<TRIPOS>BOND
   1    1    2 1
   2    1    8 2
   3    1    9 am
   4    2    3 ar
   5    2    7 ar
   6    3    4 ar
   7    3   40 1
   8    4    5 ar
   9    4   41 1
  10    5    6 ar
  11    5   10 1
  12    6    7 ar
  13    6   42 1
  14    7   43 1
  15    9   32 1
  16    9   44 1
  17   10   23 1
  18   10   45 1
  19   10   46 1
  20   11   12 1
  21   11   15 1
  22   12   13 1
  23   12   47 1
  24   12   48 1
  25   13   14 1
  26   14   15 ar
  27   14   16 ar
  28   15   19 ar
  29   16   17 ar
  30   16   49 1
  31   17   18 ar
  32   17   20 1
  33   18   19 ar
  34   18   21 1
  35   19   50 1
  36   20   22 1
  37   21   22 1
  38   21   24 1
  39   21   25 1
  40   22   51 1
  41   22   52 1
  42   23   24 am
  43   23   30 1
  44   24   31 2
  45   25   26 ar
  46   25   30 ar
  47   26   27 ar
  48   26   53 1
  49   27   28 ar
  50   27   54 1
  51   28   29 ar
  52   28   55 1
  53   29   30 ar
  54   29   56 1
  55   32   33 ar
  56   32   37 ar
  57   33   34 ar
  58   33   39 1
  59   34   35 ar
  60   34   57 1
  61   35   36 ar
  62   35   38 1
  63   36   37 ar
  64   36   58 1
  65   37   59 1

#	End of record

