#	Name: ASD00170430
#	Creating user name:	WinNT
#	Creation time:	15. 06. 2019 18:32

#	Modifying user name:	WinNT
#	Modification time:	15. 06. 2019 18:32

#	Program:	/corina/corina34_cracker 3.40 0067  02.08.2006

@<TRIPOS>MOLECULE
ASD00170430
  67   71    0    0    0
SMALL
NO_CHARGES


@<TRIPOS>ATOM
   1 C1            -4.8037    -0.4580    -1.1016 C.2     
   2 C2            -3.8691    -0.9161    -0.1989 C.2     
   3 C3            -3.1018    -2.0302    -0.7039 C.2     
   4 C4            -3.4568    -2.3890    -1.9465 C.2     
   5 S5            -4.7569    -1.3710    -2.5395 S.3     
   6 C6            -2.0158    -2.7178     0.0828 C.3     
   7 N7            -5.6646     0.5934    -0.8704 N.pl3   
   8 C8            -3.6745    -0.3351     1.1299 C.2     
   9 C9            -2.6750     0.7360     1.3292 C.ar    
  10 O10           -4.3357    -0.7339     2.0716 O.2     
  11 C11           -2.5674     1.3727     2.5671 C.ar    
  12 C12           -1.6334     2.3711     2.7470 C.ar    
  13 C13           -0.8031     2.7429     1.7024 C.ar    
  14 C14           -0.9054     2.1151     0.4719 C.ar    
  15 C15           -1.8310     1.1109     0.2820 C.ar    
  16 Cl16           0.3700     4.0009     1.9363 Cl      
  17 N17           -2.5089    -3.0262     1.4318 N.3     
  18 C18           -2.8436    -3.4906    -2.7067 C.2     
  19 C19           -3.3499    -4.2306     1.4223 C.3     
  20 C20           -1.3955    -3.1690     2.3794 C.3     
  21 C21           -4.5635    -3.9981     0.5201 C.3     
  22 C22           -5.4394    -5.2525     0.5102 C.3     
  23 C23           -4.6286    -6.4365    -0.0205 C.3     
  24 C24           -3.4150    -6.6690     0.8817 C.3     
  25 C25           -2.5391    -5.4146     0.8916 C.3     
  26 C26           -0.7031    -1.8167     2.5603 C.3     
  27 C27            0.4566    -1.9654     3.5472 C.3     
  28 C28           -0.0805    -2.4479     4.8962 C.3     
  29 C29           -0.7729    -3.8002     4.7153 C.3     
  30 C30           -1.9325    -3.6515     3.7283 C.3     
  31 C31           -3.2863    -3.9613    -3.8927 C.2     
  32 C32           -2.5439    -5.0022    -4.4118 C.2     
  33 C33           -1.5045    -5.3842    -3.6649 C.2     
  34 S34           -1.4163    -4.3932    -2.2149 S.3     
  35 H35           -1.7322    -3.6420    -0.4205 H       
  36 H36           -1.1481    -2.0619     0.1543 H       
  37 H37           -5.6884     1.0182     0.0014 H       
  38 H38           -6.2467     0.9086    -1.5794 H       
  39 H39           -3.2148     1.0842     3.3820 H       
  40 H40           -1.5493     2.8643     3.7041 H       
  41 H41           -0.2555     2.4095    -0.3389 H       
  42 H42           -1.9099     0.6221    -0.6779 H       
  43 H43           -3.6869    -4.4464     2.4362 H       
  44 H44           -0.6800    -3.8946     1.9926 H       
  45 H45           -5.1411    -3.1546     0.8983 H       
  46 H46           -4.2264    -3.7823    -0.4938 H       
  47 H47           -5.7764    -5.4683     1.5241 H       
  48 H48           -6.3040    -5.0869    -0.1325 H       
  49 H49           -5.2526    -7.3302    -0.0276 H       
  50 H50           -4.2916    -6.2207    -1.0344 H       
  51 H51           -3.7521    -6.8848     1.8956 H       
  52 H52           -2.8374    -7.5125     0.5036 H       
  53 H53           -2.2021    -5.1988    -0.1223 H       
  54 H54           -1.6745    -5.5802     1.5343 H       
  55 H55           -0.3205    -1.4729     1.5993 H       
  56 H56           -1.4186    -1.0910     2.9471 H       
  57 H57            1.1720    -2.6911     3.1604 H       
  58 H58            0.9498    -1.0020     3.6761 H       
  59 H59            0.7457    -2.5539     5.5993 H       
  60 H60           -0.7960    -1.7223     5.2830 H       
  61 H61           -0.0574    -4.5259     4.3285 H       
  62 H62           -1.1555    -4.1440     5.6763 H       
  63 H63           -2.6480    -2.9259     4.1151 H       
  64 H64           -2.4258    -4.6149     3.5995 H       
  65 H65           -4.1523    -3.5556    -4.3946 H       
  66 H66           -2.7858    -5.4737    -5.3529 H       
  67 H67           -0.8186    -6.1797    -3.9160 H       
@<TRIPOS>BOND
   1    1    2 2
   2    1    7 1
   3    1    5 1
   4    2    3 1
   5    2    8 1
   6    3    4 2
   7    3    6 1
   8    4    5 1
   9    4   18 1
  10    6   17 1
  11    6   35 1
  12    6   36 1
  13    7   37 1
  14    7   38 1
  15    8    9 1
  16    8   10 2
  17    9   11 ar
  18    9   15 ar
  19   11   12 ar
  20   11   39 1
  21   12   13 ar
  22   12   40 1
  23   13   14 ar
  24   13   16 1
  25   14   15 ar
  26   14   41 1
  27   15   42 1
  28   17   19 1
  29   17   20 1
  30   18   31 2
  31   18   34 1
  32   19   21 1
  33   19   25 1
  34   19   43 1
  35   20   26 1
  36   20   30 1
  37   20   44 1
  38   21   22 1
  39   21   45 1
  40   21   46 1
  41   22   23 1
  42   22   47 1
  43   22   48 1
  44   23   24 1
  45   23   49 1
  46   23   50 1
  47   24   25 1
  48   24   51 1
  49   24   52 1
  50   25   53 1
  51   25   54 1
  52   26   27 1
  53   26   55 1
  54   26   56 1
  55   27   28 1
  56   27   57 1
  57   27   58 1
  58   28   29 1
  59   28   59 1
  60   28   60 1
  61   29   30 1
  62   29   61 1
  63   29   62 1
  64   30   63 1
  65   30   64 1
  66   31   32 1
  67   31   65 1
  68   32   33 2
  69   32   66 1
  70   33   34 1
  71   33   67 1

#	End of record

