#	Name: ASD08070665
#	Creating user name:	WinNT
#	Creation time:	15. 06. 2019 21:15

#	Modifying user name:	WinNT
#	Modification time:	15. 06. 2019 21:15

#	Program:	/corina/corina34_cracker 3.40 0067  02.08.2006

@<TRIPOS>MOLECULE
ASD08070665
  43   43    0    0    0
SMALL
NO_CHARGES


@<TRIPOS>ATOM
   1 C1            -0.0178     1.4584     0.0101 C.2     
   2 C2             0.0021    -0.0041     0.0020 C.2     
   3 C3             1.1800    -0.6630    -0.0128 C.2     
   4 O4             1.0280     2.0812     0.0034 O.2     
   5 N5            -1.1940     2.1163     0.0192 N.am    
   6 C6             1.1999    -2.1328    -0.0209 C.ar    
   7 C7             2.4201    -2.8185    -0.0362 C.ar    
   8 C8             2.4333    -4.1950    -0.0432 C.ar    
   9 C9             1.2375    -4.9041    -0.0351 C.ar    
  10 C10            0.0230    -4.2279    -0.0199 C.ar    
  11 C11           -0.0011    -2.8515    -0.0074 C.ar    
  12 O12            1.2559    -6.2613    -0.0426 O.3     
  13 C13           -0.0083    -6.9273    -0.0336 C.3     
  14 C14            0.2127    -8.4413    -0.0439 C.3     
  15 O15            0.8570    -8.8368     1.1687 O.3     
  16 C16           -1.2139     3.5811     0.0273 C.3     
  17 C17           -1.1019     4.1006    -1.4075 C.3     
  18 C18            0.2628     3.7175    -1.9835 C.3     
  19 C19           -2.5251     4.0700     0.6458 C.3     
  20 C20           -2.5800     3.6564     2.1178 C.3     
  21 H21           -0.9258    -0.5567     0.0079 H       
  22 H22            2.1079    -0.1103    -0.0187 H       
  23 H23           -2.0274     1.6199     0.0205 H       
  24 H24            3.3496    -2.2686    -0.0428 H       
  25 H25            3.3742    -4.7251    -0.0554 H       
  26 H26           -0.9032    -4.7833    -0.0137 H       
  27 H27           -0.9451    -2.3271     0.0086 H       
  28 H28           -0.5604    -6.6468     0.8635 H       
  29 H29           -0.5781    -6.6373    -0.9164 H       
  30 H30           -0.7487    -8.9482    -0.1266 H       
  31 H31            0.8400    -8.7111    -0.8934 H       
  32 H32            1.0289    -9.7864     1.2311 H       
  33 H33           -0.3743     3.9527     0.6148 H       
  34 H34           -1.8904     3.6586    -2.0165 H       
  35 H35           -1.2058     5.1856    -1.4102 H       
  36 H36            1.0513     4.1595    -1.3745 H       
  37 H37            0.3667     2.6325    -1.9808 H       
  38 H38            0.3425     4.0876    -3.0057 H       
  39 H39           -2.5792     5.1561     0.5713 H       
  40 H40           -3.3659     3.6269     0.1122 H       
  41 H41           -2.5259     2.5703     2.1923 H       
  42 H42           -1.7392     4.0995     2.6514 H       
  43 H43           -3.5142     4.0046     2.5584 H       
@<TRIPOS>BOND
   1    1    2 1
   2    1    4 2
   3    1    5 am
   4    2    3 2
   5    2   21 1
   6    3    6 1
   7    3   22 1
   8    5   16 1
   9    5   23 1
  10    6    7 ar
  11    6   11 ar
  12    7    8 ar
  13    7   24 1
  14    8    9 ar
  15    8   25 1
  16    9   10 ar
  17    9   12 1
  18   10   11 ar
  19   10   26 1
  20   11   27 1
  21   12   13 1
  22   13   14 1
  23   13   28 1
  24   13   29 1
  25   14   15 1
  26   14   30 1
  27   14   31 1
  28   15   32 1
  29   16   17 1
  30   16   19 1
  31   16   33 1
  32   17   18 1
  33   17   34 1
  34   17   35 1
  35   18   36 1
  36   18   37 1
  37   18   38 1
  38   19   20 1
  39   19   39 1
  40   19   40 1
  41   20   41 1
  42   20   42 1
  43   20   43 1

#	End of record

