#	Name: ASD01912476
#	Creating user name:	WinNT
#	Creation time:	15. 06. 2019 19:59

#	Modifying user name:	WinNT
#	Modification time:	15. 06. 2019 19:59

#	Program:	/corina/corina34_cracker 3.40 0067  02.08.2006

@<TRIPOS>MOLECULE
ASD01912476
  63   66    0    0    0
SMALL
NO_CHARGES


@<TRIPOS>ATOM
   1 C1            -0.0166     1.3758     0.0096 C.ar    
   2 C2             0.0021    -0.0041     0.0020 C.ar    
   3 C3            -1.1960    -0.7150     0.0101 C.ar    
   4 C4            -2.4087    -0.0287     0.0258 C.ar    
   5 C5            -2.4183     1.3508     0.0333 C.ar    
   6 C6            -1.2243     2.0540     0.0306 C.ar    
   7 C7            -1.1807    -2.1991     0.0015 C.2     
   8 N8            -0.1086    -2.9624    -0.0133 N.2     
   9 C9            -2.3110    -3.0394     0.0138 C.2     
  10 C10           -1.8762    -4.3183     0.0000 C.2     
  11 N11           -0.5261    -4.2994    -0.0168 N.pl3   
  12 C12           -2.7450    -5.5496     0.0066 C.3     
  13 C13            0.3500    -5.4735    -0.0352 C.3     
  14 C14            0.6325    -5.8672    -1.4621 C.2     
  15 N15            1.4217    -6.9276    -1.7250 N.am    
  16 O16            0.1496    -5.2298    -2.3740 O.2     
  17 C17            1.7103    -7.3290    -3.1102 C.3     
  18 C18            2.0223    -7.7104    -0.6342 C.3     
  19 C19            3.5268    -7.8361    -0.8964 C.3     
  20 N20            3.7420    -8.3810    -2.2435 N.3     
  21 C21            3.2278    -7.4705    -3.2699 C.3     
  22 C22            5.0863    -8.6621    -2.4583 C.ar    
  23 N23            5.9672    -8.4271    -1.4983 N.ar    
  24 C24            5.4933    -9.1933    -3.6782 C.ar    
  25 C25            6.8337    -9.4686    -3.8782 C.ar    
  26 C26            7.7260    -9.2026    -2.8477 C.ar    
  27 C27            7.2522    -8.6802    -1.6612 C.ar    
  28 F28           -1.2382     3.4049     0.0384 F       
  29 C29           -3.1635    -5.8863    -1.4261 C.3     
  30 C30           -4.0456    -7.1364    -1.4194 C.3     
  31 C31            1.2787     2.1460     0.0014 C.3     
  32 O32           -4.4363    -7.4508    -2.7574 O.3     
  33 C33           -5.2674    -8.6084    -2.8634 C.3     
  34 H34            0.9441    -0.5321    -0.0105 H       
  35 H35           -3.3397    -0.5760     0.0318 H       
  36 H36           -3.3577     1.8835     0.0452 H       
  37 H37           -3.3420    -2.7184     0.0317 H       
  38 H38           -2.1871    -6.3858     0.4281 H       
  39 H39           -3.6333    -5.3643     0.6105 H       
  40 H40            1.2869    -5.2356     0.4684 H       
  41 H41           -0.1396    -6.3002     0.4797 H       
  42 H42            1.2292    -8.2837    -3.3226 H       
  43 H43            1.3392    -6.5680    -3.7967 H       
  44 H44            1.8574    -7.2016     0.3155 H       
  45 H45            1.5717    -8.7025    -0.6044 H       
  46 H46            3.9922    -6.8532    -0.8230 H       
  47 H47            3.9700    -8.5048    -0.1585 H       
  48 H48            3.4493    -7.8738    -4.2580 H       
  49 H49            3.7010    -6.4946    -3.1606 H       
  50 H50            4.7721    -9.3882    -4.4582 H       
  51 H51            7.1789    -9.8815    -4.8146 H       
  52 H52            8.7793    -9.4062    -2.9720 H       
  53 H53            7.9426    -8.4715    -0.8574 H       
  54 H54           -3.7214    -5.0501    -1.8476 H       
  55 H55           -2.2752    -6.0716    -2.0299 H       
  56 H56           -3.4876    -7.9725    -0.9978 H       
  57 H57           -4.9338    -6.9510    -0.8155 H       
  58 H58            1.5812     2.3372    -1.0282 H       
  59 H59            1.1412     3.0939     0.5216 H       
  60 H60            2.0507     1.5639     0.5047 H       
  61 H61           -4.7348    -9.4751    -2.4719 H       
  62 H62           -6.1810    -8.4536    -2.2895 H       
  63 H63           -5.5202    -8.7796    -3.9098 H       
@<TRIPOS>BOND
   1    1    2 ar
   2    1   31 1
   3    1    6 ar
   4    2    3 ar
   5    2   34 1
   6    3    4 ar
   7    3    7 1
   8    4    5 ar
   9    4   35 1
  10    5    6 ar
  11    5   36 1
  12    6   28 1
  13    7    8 2
  14    7    9 1
  15    8   11 1
  16    9   10 2
  17    9   37 1
  18   10   11 1
  19   10   12 1
  20   11   13 1
  21   12   29 1
  22   12   38 1
  23   12   39 1
  24   13   14 1
  25   13   40 1
  26   13   41 1
  27   14   15 am
  28   14   16 2
  29   15   17 1
  30   15   18 1
  31   17   21 1
  32   17   42 1
  33   17   43 1
  34   18   19 1
  35   18   44 1
  36   18   45 1
  37   19   20 1
  38   19   46 1
  39   19   47 1
  40   20   21 1
  41   20   22 1
  42   21   48 1
  43   21   49 1
  44   22   23 ar
  45   22   24 ar
  46   23   27 ar
  47   24   25 ar
  48   24   50 1
  49   25   26 ar
  50   25   51 1
  51   26   27 ar
  52   26   52 1
  53   27   53 1
  54   29   30 1
  55   29   54 1
  56   29   55 1
  57   30   32 1
  58   30   56 1
  59   30   57 1
  60   31   58 1
  61   31   59 1
  62   31   60 1
  63   32   33 1
  64   33   61 1
  65   33   62 1
  66   33   63 1

#	End of record

