#	Name: ASD03081121
#	Creating user name:	WinNT
#	Creation time:	15. 06. 2019 20:27

#	Modifying user name:	WinNT
#	Modification time:	15. 06. 2019 20:27

#	Program:	/corina/corina34_cracker 3.40 0067  02.08.2006

@<TRIPOS>MOLECULE
ASD03081121
  26   28    0    0    0
SMALL
NO_CHARGES


@<TRIPOS>ATOM
   1 C1             0.0021    -0.0041     0.0020 C.1     
   2 C2            -0.0173     1.4278     0.0099 C.ar    
   3 C3             1.1793     2.1428     0.0023 C.ar    
   4 C4             1.1511     3.5354     0.0101 C.ar    
   5 C5            -0.0741     4.2062     0.0254 C.ar    
   6 C6            -1.2557     3.4922     0.0329 C.ar    
   7 C7            -1.2356     2.1115     0.0194 C.ar    
   8 N8             0.0175    -1.1399    -0.0042 N.1     
   9 O9             3.6578     3.7950    -0.0120 O.3     
  10 N10            4.4711     4.6946    -0.0140 N.2     
  11 C11            3.8662     5.8543    -0.0013 C.2     
  12 N12            2.5382     5.6159     0.0095 N.2     
  13 C13            2.4154     4.3020     0.0026 C.2     
  14 C14            3.7654     8.3622     0.0159 C.ar    
  15 C15            4.5205     7.1875     0.0012 C.ar    
  16 C16            5.9144     7.3092    -0.0105 C.ar    
  17 C17            6.4521     8.5850    -0.0069 C.ar    
  18 N18            5.6545     9.6361     0.0073 N.ar    
  19 N19            4.3761     9.5306     0.0182 N.ar    
  20 H20            2.1239     1.6194    -0.0092 H       
  21 H21           -0.0970     5.2859     0.0319 H       
  22 H22           -2.2001     4.0159     0.0448 H       
  23 H23           -2.1636     1.5590     0.0204 H       
  24 H24            2.6865     8.3138     0.0208 H       
  25 H25            6.5502     6.4362    -0.0218 H       
  26 H26            7.5236     8.7198    -0.0153 H       
@<TRIPOS>BOND
   1    1    2 1
   2    1    8 3
   3    2    3 ar
   4    2    7 ar
   5    3    4 ar
   6    3   20 1
   7    4    5 ar
   8    4   13 1
   9    5    6 ar
  10    5   21 1
  11    6    7 ar
  12    6   22 1
  13    7   23 1
  14    9   10 1
  15    9   13 1
  16   10   11 2
  17   11   12 1
  18   11   15 1
  19   12   13 2
  20   14   15 ar
  21   14   19 ar
  22   14   24 1
  23   15   16 ar
  24   16   17 ar
  25   16   25 1
  26   17   18 ar
  27   17   26 1
  28   18   19 ar

#	End of record

