#	Name: ASD01903230
#	Creating user name:	WinNT
#	Creation time:	15. 06. 2019 19:54

#	Modifying user name:	WinNT
#	Modification time:	15. 06. 2019 19:54

#	Program:	/corina/corina34_cracker 3.40 0067  02.08.2006

@<TRIPOS>MOLECULE
ASD01903230
  36   38    0    0    0
SMALL
NO_CHARGES


@<TRIPOS>ATOM
   1 S1            -0.0185     1.7076     0.0293 S.3     
   2 C2             0.0033    -0.0013     0.0106 C.2     
   3 N3             1.2230    -0.4369    -0.0079 N.2     
   4 C4             2.1862     0.4762    -0.0089 C.2     
   5 C5             1.7425     1.7454     0.0098 C.2     
   6 N6            -1.1259    -0.8079     0.0150 N.pl3   
   7 C7            -2.3874    -0.2341     0.0354 C.ar    
   8 C8             3.6294     0.1263    -0.0290 C.2     
   9 C9             4.1749    -1.1749     0.0544 C.2     
  10 N10            5.4806    -1.0704     0.0029 N.2     
  11 N11            5.8131     0.2846    -0.1138 N.pl3   
  12 C12            4.6692     1.0012    -0.1373 C.2     
  13 N13           -3.4547    -1.0189     0.0394 N.ar    
  14 C14           -4.6728    -0.5036     0.0587 C.ar    
  15 C15           -4.8240     0.8740     0.0748 C.ar    
  16 C16           -3.6858     1.6656     0.0701 C.ar    
  17 N17           -2.4971     1.0862     0.0559 N.ar    
  18 C18           -5.8816    -1.4035     0.0626 C.3     
  19 N19            3.4491    -2.3649     0.1720 N.3     
  20 C20            3.6324    -3.2127    -1.0136 C.3     
  21 C21            3.8167    -3.0869     1.3974 C.3     
  22 H22            2.3581     2.6328     0.0122 H       
  23 H23           -1.0323    -1.7733     0.0038 H       
  24 H24            6.7113     0.6462    -0.1718 H       
  25 H25            4.5919     2.0753    -0.2199 H       
  26 H26           -5.8070     1.3211     0.0904 H       
  27 H27           -3.7689     2.7424     0.0820 H       
  28 H28           -6.1615    -1.6316     1.0910 H       
  29 H29           -6.7102    -0.9011    -0.4366 H       
  30 H30           -5.6474    -2.3287    -0.4640 H       
  31 H31            4.6887    -3.4571    -1.1257 H       
  32 H32            3.0573    -4.1311    -0.8959 H       
  33 H33            3.2871    -2.6787    -1.8990 H       
  34 H34            3.6887    -2.4305     2.2581 H       
  35 H35            3.1766    -3.9620     1.5094 H       
  36 H36            4.8577    -3.4039     1.3338 H       
@<TRIPOS>BOND
   1    1    2 1
   2    1    5 1
   3    2    3 2
   4    2    6 1
   5    3    4 1
   6    4    5 2
   7    4    8 1
   8    5   22 1
   9    6    7 1
  10    6   23 1
  11    7   13 ar
  12    7   17 ar
  13    8    9 1
  14    8   12 2
  15    9   10 2
  16    9   19 1
  17   10   11 1
  18   11   12 1
  19   11   24 1
  20   12   25 1
  21   13   14 ar
  22   14   15 ar
  23   14   18 1
  24   15   16 ar
  25   15   26 1
  26   16   17 ar
  27   16   27 1
  28   18   28 1
  29   18   29 1
  30   18   30 1
  31   19   20 1
  32   19   21 1
  33   20   31 1
  34   20   32 1
  35   20   33 1
  36   21   34 1
  37   21   35 1
  38   21   36 1

#	End of record

