#	Name: ASD01883487
#	Creating user name:	WinNT
#	Creation time:	15. 06. 2019 19:46

#	Modifying user name:	WinNT
#	Modification time:	15. 06. 2019 19:46

#	Program:	/corina/corina34_cracker 3.40 0067  02.08.2006

@<TRIPOS>MOLECULE
ASD01883487
  63   66    0    0    0
SMALL
NO_CHARGES


@<TRIPOS>ATOM
   1 N1            -0.0080     1.3271     0.0354 N.am    
   2 C2            -0.3623     0.6471    -1.0708 C.2     
   3 C3            -1.5938    -0.0487    -1.1070 C.2     
   4 C4            -2.4239    -0.0108     0.0261 C.2     
   5 C5            -1.9981     0.7175     1.1524 C.2     
   6 C6            -0.8092     1.3586     1.1319 C.2     
   7 O7             0.3768     0.6309    -2.0406 O.2     
   8 C8            -1.9868    -0.7769    -2.2757 C.1     
   9 N9            -2.2985    -1.3546    -3.2029 N.1     
  10 N10           -3.6309    -0.6732     0.0341 N.pl3   
  11 C11           -4.8919     0.0702     0.1608 C.3     
  12 C12           -5.6944    -0.5155     1.3268 C.3     
  13 C13           -5.8708    -2.0207     1.1144 C.3     
  14 C14           -4.4985    -2.6976     1.0843 C.3     
  15 C15           -3.6827    -2.1362    -0.0901 C.3     
  16 C16            1.2701     2.0427     0.0594 C.3     
  17 C17            1.0645     3.4711    -0.4488 C.3     
  18 O18            0.2166     4.1812     0.4560 O.3     
  19 C19           -0.0681     5.4741     0.1490 C.ar    
  20 C20           -0.8852     6.2228     0.9836 C.ar    
  21 C21           -1.1731     7.5368     0.6693 C.ar    
  22 C22           -0.6476     8.1060    -0.4761 C.ar    
  23 C23            0.1666     7.3618    -1.3097 C.ar    
  24 C24            0.4625     6.0493    -0.9966 C.ar    
  25 N25           -6.6684    -2.5800     2.2139 N.3     
  26 C26           -6.9591    -4.0014     1.9834 C.3     
  27 C27           -7.9732    -4.4767     2.9917 C.ar    
  28 C28           -9.3232    -4.3925     2.7067 C.ar    
  29 C29          -10.2534    -4.8284     3.6317 C.ar    
  30 C30           -9.8336    -5.3491     4.8415 C.ar    
  31 C31           -8.4835    -5.4341     5.1261 C.ar    
  32 C32           -7.5532    -5.0022     4.1993 C.ar    
  33 C33           -5.9962    -2.3829     3.5051 C.3     
  34 H34           -2.6200     0.7608     2.0343 H       
  35 H35           -0.4930     1.9144     2.0022 H       
  36 H36           -4.6785     1.1212     0.3555 H       
  37 H37           -5.4656    -0.0236    -0.7613 H       
  38 H38           -5.1602    -0.3399     2.2606 H       
  39 H39           -6.6729    -0.0373     1.3715 H       
  40 H40           -6.3831    -2.1964     0.1685 H       
  41 H41           -3.9756    -2.5016     2.0204 H       
  42 H42           -4.6258    -3.7726     0.9564 H       
  43 H43           -4.1593    -2.4118    -1.0309 H       
  44 H44           -2.6709    -2.5405    -0.0585 H       
  45 H45            1.6512     2.0716     1.0802 H       
  46 H46            1.9865     1.5287    -0.5814 H       
  47 H47            2.0285     3.9755    -0.5150 H       
  48 H48            0.6008     3.4427    -1.4348 H       
  49 H49           -1.2961     5.7786     1.8781 H       
  50 H50           -1.8094     8.1199     1.3185 H       
  51 H51           -0.8739     9.1334    -0.7201 H       
  52 H52            0.5752     7.8084    -2.2041 H       
  53 H53            1.0986     5.4684    -1.6481 H       
  54 H54           -7.3581    -4.1321     0.9775 H       
  55 H55           -6.0424    -4.5815     2.0888 H       
  56 H56           -9.6512    -3.9857     1.7615 H       
  57 H57          -11.3082    -4.7619     3.4093 H       
  58 H58          -10.5603    -5.6890     5.5644 H       
  59 H59           -8.1555    -5.8406     6.0714 H       
  60 H60           -6.4984    -5.0687     4.4217 H       
  61 H61           -5.8556    -1.3167     3.6825 H       
  62 H62           -6.6081    -2.8062     4.3017 H       
  63 H63           -5.0261    -2.8796     3.4893 H       
@<TRIPOS>BOND
   1    1    2 am
   2    1   16 1
   3    1    6 1
   4    2    3 1
   5    2    7 2
   6    3    4 2
   7    3    8 1
   8    4    5 1
   9    4   10 1
  10    5    6 2
  11    5   34 1
  12    6   35 1
  13    8    9 3
  14   10   11 1
  15   10   15 1
  16   11   12 1
  17   11   36 1
  18   11   37 1
  19   12   13 1
  20   12   38 1
  21   12   39 1
  22   13   14 1
  23   13   25 1
  24   13   40 1
  25   14   15 1
  26   14   41 1
  27   14   42 1
  28   15   43 1
  29   15   44 1
  30   16   17 1
  31   16   45 1
  32   16   46 1
  33   17   18 1
  34   17   47 1
  35   17   48 1
  36   18   19 1
  37   19   20 ar
  38   19   24 ar
  39   20   21 ar
  40   20   49 1
  41   21   22 ar
  42   21   50 1
  43   22   23 ar
  44   22   51 1
  45   23   24 ar
  46   23   52 1
  47   24   53 1
  48   25   26 1
  49   25   33 1
  50   26   27 1
  51   26   54 1
  52   26   55 1
  53   27   28 ar
  54   27   32 ar
  55   28   29 ar
  56   28   56 1
  57   29   30 ar
  58   29   57 1
  59   30   31 ar
  60   30   58 1
  61   31   32 ar
  62   31   59 1
  63   32   60 1
  64   33   61 1
  65   33   62 1
  66   33   63 1

#	End of record

