#	Name: ASD03490075
#	Creating user name:	WinNT
#	Creation time:	15. 06. 2019 20:42

#	Modifying user name:	WinNT
#	Modification time:	15. 06. 2019 20:42

#	Program:	/corina/corina34_cracker 3.40 0067  02.08.2006

@<TRIPOS>MOLECULE
ASD03490075
  63   64    0    0    0
SMALL
NO_CHARGES


@<TRIPOS>ATOM
   1 O1            -0.5642     1.7470     0.8299 O.3     
   2 C2            -0.3447     0.4229     0.8096 C.2     
   3 C3            -1.4829    -0.5254     0.5335 C.3     
   4 O4             0.7654    -0.0086     1.0127 O.2     
   5 O5            -1.0274    -1.8720     0.6797 O.3     
   6 C6            -2.6198    -0.2607     1.5241 C.3     
   7 O7            -1.9576    -0.3249    -0.7994 O.3     
   8 C8            -3.0261    -1.1961    -1.1754 C.3     
   9 C9            -4.2251    -0.9581    -0.2537 C.3     
  10 C10           -3.7958    -1.1868     1.1991 C.3     
  11 C11           -3.4311    -0.9115    -2.6231 C.3     
  12 C12           -2.2876    -1.3068    -3.5597 C.3     
  13 C13           -2.7374    -1.1397    -5.0125 C.3     
  14 O14           -1.6964    -1.6258    -5.9004 O.3     
  15 O15           -1.1572    -0.4686    -3.3115 O.3     
  16 C16           -4.7206     0.4798    -0.4202 C.3     
  17 O17           -5.7647     0.7359     0.5211 O.3     
  18 O18           -3.3943    -2.5475     1.3703 O.3     
  19 C19           -1.9355    -1.5497    -7.2190 C.2     
  20 O20           -2.9801    -1.0920    -7.6181 O.2     
  21 C21           -0.9012    -2.0351    -8.2016 C.3     
  22 N22           -1.5418    -2.2979    -9.4972 N.3     
  23 C23            0.1793    -0.9657    -8.3746 C.3     
  24 C24            1.2757    -1.4982    -9.2608 C.ar    
  25 C25            1.2060    -1.3195   -10.6298 C.ar    
  26 C26            2.3540    -2.1603    -8.7043 C.ar    
  27 C27            3.3597    -2.6487    -9.5172 C.ar    
  28 C28            3.2870    -2.4754   -10.8867 C.ar    
  29 C29            2.2117    -1.8080   -11.4428 C.ar    
  30 N30           -5.2328     0.6654    -1.7802 N.am    
  31 O31           -4.3317     2.6882    -1.9162 O.2     
  32 C32           -4.9817     1.8110    -2.4444 C.2     
  33 C33           -5.5086     2.0019    -3.8433 C.3     
  34 H34            0.1967     2.3154     1.0113 H       
  35 H35           -0.3060    -2.1103     0.0814 H       
  36 H36           -2.2719    -0.4559     2.5385 H       
  37 H37           -2.9404     0.7778     1.4415 H       
  38 H38           -2.6991    -2.2320    -1.0862 H       
  39 H39           -5.0254    -1.6522    -0.5105 H       
  40 H40           -4.6296    -0.9647     1.8650 H       
  41 H41           -4.3209    -1.4898    -2.8719 H       
  42 H42           -3.6444     0.1512    -2.7385 H       
  43 H43           -2.0148    -2.3469    -3.3811 H       
  44 H44           -3.6514    -1.7100    -5.1778 H       
  45 H45           -2.9252    -0.0854    -5.2157 H       
  46 H46           -1.3277     0.4730    -3.4509 H       
  47 H47           -3.8960     1.1708    -0.2451 H       
  48 H48           -6.5628     0.2093     0.3763 H       
  49 H49           -3.1091    -2.7634     2.2688 H       
  50 H50           -0.4474    -2.9529    -7.8278 H       
  51 H51           -1.9702    -1.4617    -9.8650 H       
  52 H52           -0.8820    -2.6855   -10.1548 H       
  53 H53           -0.2580    -0.0778    -8.8313 H       
  54 H54            0.5934    -0.7066    -7.4002 H       
  55 H55            0.3655    -0.7986   -11.0643 H       
  56 H56            2.4109    -2.2957    -7.6343 H       
  57 H57            4.2025    -3.1654    -9.0823 H       
  58 H58            4.0729    -2.8567   -11.5218 H       
  59 H59            2.1548    -1.6725   -12.5127 H       
  60 H60           -5.7526    -0.0362    -2.2026 H       
  61 H61           -6.4978     2.4576    -3.7999 H       
  62 H62           -4.8334     2.6514    -4.4003 H       
  63 H63           -5.5757     1.0347    -4.3414 H       
@<TRIPOS>BOND
   1    1    2 1
   2    1   34 1
   3    2    3 1
   4    2    4 2
   5    3    5 1
   6    3    6 1
   7    3    7 1
   8    5   35 1
   9    6   10 1
  10    6   36 1
  11    6   37 1
  12    7    8 1
  13    8    9 1
  14    8   11 1
  15    8   38 1
  16    9   10 1
  17    9   16 1
  18    9   39 1
  19   10   18 1
  20   10   40 1
  21   11   12 1
  22   11   41 1
  23   11   42 1
  24   12   13 1
  25   12   15 1
  26   12   43 1
  27   13   14 1
  28   13   44 1
  29   13   45 1
  30   14   19 1
  31   15   46 1
  32   16   17 1
  33   16   30 1
  34   16   47 1
  35   17   48 1
  36   18   49 1
  37   19   20 2
  38   19   21 1
  39   21   22 1
  40   21   23 1
  41   21   50 1
  42   22   51 1
  43   22   52 1
  44   23   24 1
  45   23   53 1
  46   23   54 1
  47   24   25 ar
  48   24   26 ar
  49   25   29 ar
  50   25   55 1
  51   26   27 ar
  52   26   56 1
  53   27   28 ar
  54   27   57 1
  55   28   29 ar
  56   28   58 1
  57   29   59 1
  58   30   32 am
  59   30   60 1
  60   31   32 2
  61   32   33 1
  62   33   61 1
  63   33   62 1
  64   33   63 1

#	End of record

