#	Name: ASD08150928
#	Creating user name:	WinNT
#	Creation time:	15. 06. 2019 21:16

#	Modifying user name:	WinNT
#	Modification time:	15. 06. 2019 21:16

#	Program:	/corina/corina34_cracker 3.40 0067  02.08.2006

@<TRIPOS>MOLECULE
ASD08150928
  60   65    0    0    0
SMALL
NO_CHARGES


@<TRIPOS>ATOM
   1 N1             0.0866     1.4014    -0.4863 N.2     
   2 C2             0.1361     0.1049    -0.5881 C.2     
   3 N3             1.4328    -0.3063    -0.6751 N.pl3   
   4 C4             2.2238     0.8135    -0.6227 C.ar    
   5 N5             3.5326     1.0407    -0.6614 N.ar    
   6 C6             4.0031     2.2679    -0.5874 C.ar    
   7 N7             3.2170     3.3226    -0.4723 N.ar    
   8 C8             1.8949     3.1939    -0.4254 C.ar    
   9 C9             1.3449     1.9032    -0.5013 C.ar    
  10 N10            1.0792     4.3053    -0.3043 N.pl3   
  11 C11            1.6709     5.6432    -0.2260 C.3     
  12 C12            2.0216     6.1288    -1.6339 C.3     
  13 N13            0.6303     9.6594     2.3542 N.ar    
  14 C14           -0.2240    10.4891     2.9021 C.ar    
  15 C15           -1.5999    10.2913     2.8088 C.ar    
  16 C16           -2.0887     9.2101     2.1322 C.ar    
  17 C17           -1.1680     8.3221     1.5450 C.ar    
  18 C18           -1.5984     7.1882     0.8341 C.ar    
  19 C19           -0.6806     6.3470     0.2773 C.ar    
  20 C20            0.6836     6.5931     0.4016 C.ar    
  21 C21            1.1431     7.6936     1.0912 C.ar    
  22 C22            0.2178     8.5831     1.6788 C.ar    
  23 F23           -2.9184     6.9322     0.7031 F       
  24 N24            2.5148     7.9274     1.2085 N.3     
  25 C25            2.9422     7.8609     2.6129 C.3     
  26 C26            4.4598     8.0429     2.6907 C.3     
  27 N27            4.8271     9.3337     2.0920 N.3     
  28 C28            4.3998     9.4002     0.6875 C.3     
  29 C29            2.8821     9.2182     0.6097 C.3     
  30 C30            6.2702     9.5796     2.2153 C.3     
  31 C31            6.7405    10.8578     1.5013 C.3     
  32 C32            7.6612    11.0995     2.7090 C.3     
  33 C33            6.6679    10.2640     3.5338 C.3     
  34 H34           -0.7235    -0.5488    -0.6015 H       
  35 H35            1.7400    -1.2226    -0.7584 H       
  36 H36            5.0721     2.4177    -0.6218 H       
  37 H37            0.1157     4.1983    -0.2711 H       
  38 H38            2.5753     5.6056     0.3812 H       
  39 H39            2.3793     7.1573    -1.5848 H       
  40 H40            2.8009     5.4928    -2.0540 H       
  41 H41            1.1347     6.0823    -2.2658 H       
  42 H42            0.1485    11.3482     3.4402 H       
  43 H43           -2.2794    10.9919     3.2713 H       
  44 H44           -3.1522     9.0411     2.0503 H       
  45 H45           -1.0172     5.4775    -0.2677 H       
  46 H46            2.4515     8.6519     3.1802 H       
  47 H47            2.6703     6.8914     3.0303 H       
  48 H48            4.7755     8.0229     3.7338 H       
  49 H49            4.9511     7.2365     2.1462 H       
  50 H50            4.6717    10.3697     0.2701 H       
  51 H51            4.8904     8.6092     0.1203 H       
  52 H52            2.5664     9.2382    -0.4334 H       
  53 H53            2.3908    10.0246     1.1542 H       
  54 H54            6.8709     8.7013     1.9792 H       
  55 H55            7.2790    10.6664     0.5731 H       
  56 H56            5.9586    11.6092     1.3909 H       
  57 H57            8.6431    10.6371     2.6090 H       
  58 H58            7.7135    12.1441     3.0160 H       
  59 H59            5.8662    10.8531     3.9791 H       
  60 H60            7.1478     9.5933     4.2464 H       
@<TRIPOS>BOND
   1    1    2 2
   2    1    9 1
   3    2    3 1
   4    2   34 1
   5    3    4 1
   6    3   35 1
   7    4    5 ar
   8    4    9 ar
   9    5    6 ar
  10    6    7 ar
  11    6   36 1
  12    7    8 ar
  13    8    9 ar
  14    8   10 1
  15   10   11 1
  16   10   37 1
  17   11   12 1
  18   11   20 1
  19   11   38 1
  20   12   39 1
  21   12   40 1
  22   12   41 1
  23   13   14 ar
  24   13   22 ar
  25   14   15 ar
  26   14   42 1
  27   15   16 ar
  28   15   43 1
  29   16   17 ar
  30   16   44 1
  31   17   18 ar
  32   17   22 ar
  33   18   19 ar
  34   18   23 1
  35   19   20 ar
  36   19   45 1
  37   20   21 ar
  38   21   22 ar
  39   21   24 1
  40   24   25 1
  41   24   29 1
  42   25   26 1
  43   25   46 1
  44   25   47 1
  45   26   27 1
  46   26   48 1
  47   26   49 1
  48   27   28 1
  49   27   30 1
  50   28   29 1
  51   28   50 1
  52   28   51 1
  53   29   52 1
  54   29   53 1
  55   30   31 1
  56   30   33 1
  57   30   54 1
  58   31   32 1
  59   31   55 1
  60   31   56 1
  61   32   33 1
  62   32   57 1
  63   32   58 1
  64   33   59 1
  65   33   60 1

#	End of record

