#	Name: ASD01208913
#	Creating user name:	WinNT
#	Creation time:	15. 06. 2019 19:10

#	Modifying user name:	WinNT
#	Modification time:	15. 06. 2019 19:10

#	Program:	/corina/corina34_cracker 3.40 0067  02.08.2006

@<TRIPOS>MOLECULE
ASD01208913
  68   72    0    0    0
SMALL
NO_CHARGES


@<TRIPOS>ATOM
   1 C1            -0.6249     1.5513    -0.5831 C.2     
   2 C2            -0.3238     0.1104    -0.4488 C.ar    
   3 C3            -1.3551    -0.8017    -0.2214 C.ar    
   4 C4            -1.0685    -2.1511    -0.0961 C.ar    
   5 C5             0.2422    -2.5962    -0.1960 C.ar    
   6 C6             1.2703    -1.6928    -0.4220 C.ar    
   7 C7             0.9917    -0.3423    -0.5547 C.ar    
   8 O8             0.2749     2.3444    -0.7812 O.2     
   9 N9            -1.8976     1.9852    -0.4915 N.am    
  10 S10           -3.7433     4.0261    -0.5231 S.3     
  11 C11           -2.1805     3.3392    -0.6177 C.2     
  12 N12           -1.2979     4.2662    -0.8239 N.2     
  13 C13           -1.7435     5.5050    -0.9181 C.2     
  14 C14           -3.0653     5.6309    -0.7852 C.2     
  15 O15            2.5521    -2.1339    -0.5186 O.3     
  16 C16            4.8908    -1.6984    -0.0928 C.3     
  17 C17            3.5730    -1.1408    -0.6344 C.3     
  18 C18            3.7475    -0.7579    -2.1054 C.3     
  19 O19            5.3235    -2.7830    -0.9164 O.3     
  20 C20            6.5523    -3.3785    -0.4952 C.3     
  21 O21           -2.0720    -3.0402     0.1254 O.3     
  22 C22           -2.8446    -3.4056    -0.9301 C.ar    
  23 C23           -2.5288    -2.9594    -2.2072 C.ar    
  24 C24           -3.3103    -3.3281    -3.2808 C.ar    
  25 C25           -4.4206    -4.1515    -3.0836 C.ar    
  26 C26           -4.7345    -4.5983    -1.7985 C.ar    
  27 C27           -3.9453    -4.2293    -0.7307 C.ar    
  28 O28           -6.3561    -5.3344    -4.1877 O.3     
  29 C29           -5.2615    -4.5487    -4.2319 C.2     
  30 N30           -5.0821    -4.2020    -5.4853 N.2     
  31 N31           -6.0053    -4.7316    -6.2082 N.2     
  32 C32           -6.8037    -5.4313    -5.4519 C.2     
  33 C33           -8.0107    -6.2081    -5.9112 C.3     
  34 C34           -9.0101    -5.2551    -6.5698 C.3     
  35 C35          -10.2355    -6.0437    -7.0362 C.3     
  36 C36           -9.8028    -7.1075    -8.0472 C.3     
  37 C37           -8.8034    -8.0604    -7.3887 C.3     
  38 C38           -7.5780    -7.2718    -6.9223 C.3     
  39 H39           -2.3753    -0.4560    -0.1428 H       
  40 H40            0.4624    -3.6488    -0.0972 H       
  41 H41            1.7923     0.3597    -0.7355 H       
  42 H42           -2.6160     1.3520    -0.3374 H       
  43 H43           -1.0911     6.3486    -1.0889 H       
  44 H44           -3.6222     6.5551    -0.8305 H       
  45 H45            5.6472    -0.9135    -0.0987 H       
  46 H46            4.7433    -2.0531     0.9273 H       
  47 H47            3.2886    -0.2587    -0.0607 H       
  48 H48            2.8087    -0.3606    -2.4913 H       
  49 H49            4.5262    -0.0003    -2.1937 H       
  50 H50            4.0320    -1.6399    -2.6792 H       
  51 H51            7.3431    -2.6285    -0.5095 H       
  52 H52            6.4392    -3.7681     0.5165 H       
  53 H53            6.8118    -4.1931    -1.1714 H       
  54 H54           -1.6699    -2.3226    -2.3589 H       
  55 H55           -3.0646    -2.9802    -4.2732 H       
  56 H56           -5.5927    -5.2350    -1.6420 H       
  57 H57           -4.1853    -4.5775     0.2631 H       
  58 H58           -8.4798    -6.6910    -5.0540 H       
  59 H59           -9.3184    -4.4973    -5.8495 H       
  60 H60           -8.5410    -4.7721    -7.4270 H       
  61 H61          -10.7046    -6.5267    -6.1790 H       
  62 H62          -10.9475    -5.3648    -7.5054 H       
  63 H63          -10.6758    -7.6693    -8.3795 H       
  64 H64           -9.3337    -6.6245    -8.9044 H       
  65 H65           -9.2725    -8.5434    -6.5315 H       
  66 H66           -8.4951    -8.8183    -8.1090 H       
  67 H67           -7.1089    -6.7889    -7.7795 H       
  68 H68           -6.8660    -7.9507    -6.4531 H       
@<TRIPOS>BOND
   1    1    2 1
   2    1    8 2
   3    1    9 am
   4    2    3 ar
   5    2    7 ar
   6    3    4 ar
   7    3   39 1
   8    4    5 ar
   9    4   21 1
  10    5    6 ar
  11    5   40 1
  12    6    7 ar
  13    6   15 1
  14    7   41 1
  15    9   11 1
  16    9   42 1
  17   10   11 1
  18   10   14 1
  19   11   12 2
  20   12   13 1
  21   13   14 2
  22   13   43 1
  23   14   44 1
  24   15   17 1
  25   16   17 1
  26   16   19 1
  27   16   45 1
  28   16   46 1
  29   17   18 1
  30   17   47 1
  31   18   48 1
  32   18   49 1
  33   18   50 1
  34   19   20 1
  35   20   51 1
  36   20   52 1
  37   20   53 1
  38   21   22 1
  39   22   23 ar
  40   22   27 ar
  41   23   24 ar
  42   23   54 1
  43   24   25 ar
  44   24   55 1
  45   25   26 ar
  46   25   29 1
  47   26   27 ar
  48   26   56 1
  49   27   57 1
  50   28   29 1
  51   28   32 1
  52   29   30 2
  53   30   31 1
  54   31   32 2
  55   32   33 1
  56   33   34 1
  57   33   38 1
  58   33   58 1
  59   34   35 1
  60   34   59 1
  61   34   60 1
  62   35   36 1
  63   35   61 1
  64   35   62 1
  65   36   37 1
  66   36   63 1
  67   36   64 1
  68   37   38 1
  69   37   65 1
  70   37   66 1
  71   38   67 1
  72   38   68 1

#	End of record

