#	Name: ASD01918256
#	Creating user name:	WinNT
#	Creation time:	15. 06. 2019 20:11

#	Modifying user name:	WinNT
#	Modification time:	15. 06. 2019 20:11

#	Program:	/corina/corina34_cracker 3.40 0067  02.08.2006

@<TRIPOS>MOLECULE
ASD01918256
  38   41    0    0    0
SMALL
NO_CHARGES


@<TRIPOS>ATOM
   1 C1             0.0096     1.4440     0.0019 C.ar    
   2 C2             0.0176     0.0601    -0.0194 C.ar    
   3 C3             1.2170    -0.6256    -0.0353 C.ar    
   4 C4             2.4187     0.0787    -0.0299 C.ar    
   5 C5             2.4041     1.4720    -0.0084 C.ar    
   6 C6             1.2007     2.1473     0.0075 C.ar    
   7 Cl7           -1.4815    -0.8154    -0.0255 Cl      
   8 C8             3.7103    -0.6523    -0.0464 C.2     
   9 N9             3.8674    -1.9502    -0.0670 N.2     
  10 O10            5.0482    -2.2271    -0.0766 O.3     
  11 C11            5.7806    -1.1090    -0.0627 C.2     
  12 N12            4.9448    -0.1007    -0.0489 N.2     
  13 C13            7.2853    -1.0244    -0.0680 C.3     
  14 C14            7.8855    -1.7649     1.1495 C.3     
  15 C15            7.8798    -1.8248    -1.2480 C.3     
  16 N16            9.1192    -2.4188    -0.7332 N.am    
  17 C17            9.1467    -2.4034     0.6106 C.2     
  18 O18           10.0513    -2.8375     1.2920 O.2     
  19 C19           10.1419    -2.9348    -1.5385 C.ar    
  20 C20            9.9703    -3.0148    -2.9141 C.ar    
  21 C21           10.9804    -3.5237    -3.7067 C.ar    
  22 C22           12.1638    -3.9539    -3.1304 C.ar    
  23 C23           12.3369    -3.8751    -1.7588 C.ar    
  24 C24           11.3313    -3.3620    -0.9632 C.ar    
  25 F25           13.1505    -4.4518    -3.9073 F       
  26 H26           -0.9299     1.9767     0.0098 H       
  27 H27            1.2227    -1.7054    -0.0516 H       
  28 H28            3.3332     2.0225    -0.0037 H       
  29 H29            1.1888     3.2271     0.0238 H       
  30 H30            7.6155     0.0140    -0.0946 H       
  31 H31            8.1250    -1.0594     1.9451 H       
  32 H32            7.1956    -2.5280     1.5100 H       
  33 H33            7.1877    -2.6071    -1.5598 H       
  34 H34            8.0988    -1.1593    -2.0829 H       
  35 H35            9.0474    -2.6797    -3.3639 H       
  36 H36           10.8472    -3.5864    -4.7766 H       
  37 H37           13.2604    -4.2115    -1.3112 H       
  38 H38           11.4667    -3.3006     0.1065 H       
@<TRIPOS>BOND
   1    1    2 ar
   2    1    6 ar
   3    1   26 1
   4    2    3 ar
   5    2    7 1
   6    3    4 ar
   7    3   27 1
   8    4    5 ar
   9    4    8 1
  10    5    6 ar
  11    5   28 1
  12    6   29 1
  13    8    9 2
  14    8   12 1
  15    9   10 1
  16   10   11 1
  17   11   12 2
  18   11   13 1
  19   13   14 1
  20   13   15 1
  21   13   30 1
  22   14   17 1
  23   14   31 1
  24   14   32 1
  25   15   16 1
  26   15   33 1
  27   15   34 1
  28   16   17 am
  29   16   19 1
  30   17   18 2
  31   19   20 ar
  32   19   24 ar
  33   20   21 ar
  34   20   35 1
  35   21   22 ar
  36   21   36 1
  37   22   23 ar
  38   22   25 1
  39   23   24 ar
  40   23   37 1
  41   24   38 1

#	End of record

