#	Name: ASD01915864
#	Creating user name:	WinNT
#	Creation time:	15. 06. 2019 20:06

#	Modifying user name:	WinNT
#	Modification time:	15. 06. 2019 20:06

#	Program:	/corina/corina34_cracker 3.40 0067  02.08.2006

@<TRIPOS>MOLECULE
ASD01915864
  40   43    0    0    0
SMALL
NO_CHARGES


@<TRIPOS>ATOM
   1 C1            -0.0043     1.4632     0.2179 C.2     
   2 N2             0.0616     0.1101    -0.0288 N.pl3   
   3 C3            -1.1509    -0.6741    -0.2926 C.3     
   4 C4            -2.3298    -0.0463     0.4491 C.3     
   5 N5            -2.4043     1.3988     0.2636 N.am    
   6 C6            -1.2917     2.1722     0.2680 C.2     
   7 C7             1.2784     1.9005     0.3942 C.2     
   8 C8             2.0746     0.7560     0.2525 C.2     
   9 N9             1.2814    -0.2613     0.0091 N.2     
  10 C10            3.5768     0.7026     0.3598 C.3     
  11 O11            4.0817     2.0114     0.6319 O.3     
  12 C12            5.4287     2.1389     0.7594 C.ar    
  13 O13           -1.3543     3.3861     0.3114 O.2     
  14 C14            5.9871     3.3811     1.0238 C.ar    
  15 C15            6.2472     1.0262     0.6309 C.ar    
  16 C16            7.6161     1.1584     0.7608 C.ar    
  17 C17            8.1707     2.3985     1.0187 C.ar    
  18 C18            7.3567     3.5080     1.1528 C.ar    
  19 C19           -3.6482     1.9975     0.0773 C.ar    
  20 N20           -3.7161     3.2589    -0.3197 N.ar    
  21 C21           -4.8742     3.8635    -0.5085 C.ar    
  22 C22           -6.0656     3.1944    -0.2963 C.ar    
  23 C23           -6.0365     1.8713     0.1202 C.ar    
  24 C24           -4.8065     1.2634     0.3043 C.ar    
  25 Cl25          -4.9019     5.5194    -1.0292 Cl      
  26 H26           -1.3554    -0.6787    -1.3632 H       
  27 H27           -1.0054    -1.6969     0.0549 H       
  28 H28           -3.2540    -0.4961     0.0863 H       
  29 H29           -2.2305    -0.2601     1.5133 H       
  30 H30            1.6070     2.9088     0.5981 H       
  31 H31            3.8596     0.0287     1.1686 H       
  32 H32            3.9954     0.3395    -0.5788 H       
  33 H33            5.3518     4.2481     1.1283 H       
  34 H34            5.8145     0.0573     0.4298 H       
  35 H35            8.2537     0.2924     0.6612 H       
  36 H36            9.2412     2.4998     1.1199 H       
  37 H37            7.7922     4.4756     1.3539 H       
  38 H38           -7.0089     3.6966    -0.4528 H       
  39 H39           -6.9529     1.3266     0.2932 H       
  40 H40           -4.7476     0.2346     0.6276 H       
@<TRIPOS>BOND
   1    1    2 1
   2    1    7 2
   3    1    6 1
   4    2    3 1
   5    2    9 1
   6    3    4 1
   7    3   26 1
   8    3   27 1
   9    4    5 1
  10    4   28 1
  11    4   29 1
  12    5    6 am
  13    5   19 1
  14    6   13 2
  15    7    8 1
  16    7   30 1
  17    8    9 2
  18    8   10 1
  19   10   11 1
  20   10   31 1
  21   10   32 1
  22   11   12 1
  23   12   14 ar
  24   12   15 ar
  25   14   18 ar
  26   14   33 1
  27   15   16 ar
  28   15   34 1
  29   16   17 ar
  30   16   35 1
  31   17   18 ar
  32   17   36 1
  33   18   37 1
  34   19   20 ar
  35   19   24 ar
  36   20   21 ar
  37   21   22 ar
  38   21   25 1
  39   22   23 ar
  40   22   38 1
  41   23   24 ar
  42   23   39 1
  43   24   40 1

#	End of record

