#	Name: ASD01410033
#	Creating user name:	WinNT
#	Creation time:	15. 06. 2019 19:16

#	Modifying user name:	WinNT
#	Modification time:	15. 06. 2019 19:16

#	Program:	/corina/corina34_cracker 3.40 0067  02.08.2006

@<TRIPOS>MOLECULE
ASD01410033
  38   39    0    0    0
SMALL
NO_CHARGES


@<TRIPOS>ATOM
   1 C1            -0.0265     1.4012    -0.0670 C.ar    
   2 C2            -0.0036     0.0236    -0.0692 C.ar    
   3 C3            -1.2060    -0.6937    -0.0486 C.ar    
   4 C4            -2.4266     0.0003    -0.0257 C.ar    
   5 C5            -2.4283     1.3871    -0.0238 C.ar    
   6 C6            -1.2352     2.0814    -0.0386 C.ar    
   7 O7            -3.5982    -0.6825    -0.0060 O.3     
   8 C8            -4.7996     0.0911     0.0166 C.3     
   9 C9            -5.9909    -0.8317     0.0363 C.2     
  10 N10           -7.2381    -0.3215     0.0593 N.am    
  11 C11           -8.3390    -1.1690    -0.0358 C.ar    
  12 C12           -8.2751    -2.3097    -0.8241 C.ar    
  13 C13           -9.3677    -3.1486    -0.9170 C.ar    
  14 C14          -10.5340    -2.8604    -0.2271 C.ar    
  15 C15          -10.6162    -1.7325     0.5605 C.ar    
  16 C16           -9.5169    -0.8772     0.6696 C.ar    
  17 C17           -9.5976     0.3306     1.5104 C.2     
  18 O18          -10.7650     0.6701     2.0916 O.3     
  19 O19           -8.6116     1.0202     1.6796 O.2     
  20 O20           -5.8273    -2.0333     0.0313 O.2     
  21 Cl21           1.4645     2.2900    -0.0926 Cl      
  22 C22           -1.1906    -2.1615    -0.0513 C.2     
  23 C23            0.1220    -2.9013    -0.0764 C.3     
  24 O24           -2.2345    -2.7790    -0.0334 O.2     
  25 H25            0.9397    -0.5019    -0.0873 H       
  26 H26           -3.3647     1.9249    -0.0063 H       
  27 H27           -1.2430     3.1614    -0.0366 H       
  28 H28           -4.8111     0.7183     0.9080 H       
  29 H29           -4.8427     0.7213    -0.8717 H       
  30 H30           -7.3690     0.6361     0.1421 H       
  31 H31           -7.3698    -2.5411    -1.3657 H       
  32 H32           -9.3129    -4.0350    -1.5317 H       
  33 H33          -11.3832    -3.5229    -0.3072 H       
  34 H34          -11.5278    -1.5122     1.0960 H       
  35 H35          -10.7689     1.4706     2.6341 H       
  36 H36            0.9429    -2.1843    -0.0901 H       
  37 H37            0.2025    -3.5288     0.8112 H       
  38 H38            0.1702    -3.5258    -0.9685 H       
@<TRIPOS>BOND
   1    1    2 ar
   2    1   21 1
   3    1    6 ar
   4    2    3 ar
   5    2   25 1
   6    3    4 ar
   7    3   22 1
   8    4    5 ar
   9    4    7 1
  10    5    6 ar
  11    5   26 1
  12    6   27 1
  13    7    8 1
  14    8    9 1
  15    8   28 1
  16    8   29 1
  17    9   10 am
  18    9   20 2
  19   10   11 1
  20   10   30 1
  21   11   12 ar
  22   11   16 ar
  23   12   13 ar
  24   12   31 1
  25   13   14 ar
  26   13   32 1
  27   14   15 ar
  28   14   33 1
  29   15   16 ar
  30   15   34 1
  31   16   17 1
  32   17   18 1
  33   17   19 2
  34   18   35 1
  35   22   23 1
  36   22   24 2
  37   23   36 1
  38   23   37 1
  39   23   38 1

#	End of record

