#	Name: ASD00060037
#	Creating user name:	WinNT
#	Creation time:	15. 06. 2019 18:29

#	Modifying user name:	WinNT
#	Modification time:	15. 06. 2019 18:29

#	Program:	/corina/corina34_cracker 3.40 0067  02.08.2006

@<TRIPOS>MOLECULE
ASD00060037
  45   47    0    0    0
SMALL
NO_CHARGES


@<TRIPOS>ATOM
   1 C1            -0.0167     1.3784     0.0096 C.ar    
   2 C2             0.0021    -0.0041     0.0020 C.ar    
   3 C3             1.2074    -0.6814    -0.0127 C.ar    
   4 C4             2.3963     0.0221    -0.0203 C.ar    
   5 C5             2.3802     1.4093    -0.0132 C.ar    
   6 C6             1.1695     2.0865     0.0021 C.ar    
   7 O7             3.5484     2.1036    -0.0202 O.3     
   8 C8             4.0946     2.4415    -1.2967 C.3     
   9 C9             5.4003     3.2154    -1.1041 C.3     
  10 S10            6.0922     3.6433    -2.7210 S.3     
  11 C11            7.5453     4.5016    -2.2146 C.2     
  12 N12            8.4615     5.0612    -3.0598 N.pl3   
  13 N13            7.9059     4.7035    -0.9709 N.2     
  14 C14            9.4471     5.6363    -2.2742 C.ar    
  15 C15           10.6121     6.3347    -2.5522 C.ar    
  16 C16            9.0739     5.3971    -0.9413 C.ar    
  17 C17            9.8840     5.8686     0.0948 C.ar    
  18 C18           11.0388     6.5581    -0.1997 C.ar    
  19 C19           11.4037     6.7897    -1.5177 C.ar    
  20 C20            8.4113     5.0539    -4.5239 C.3     
  21 C21            7.6668     6.2719    -5.0070 C.2     
  22 O22            7.2237     7.0646    -4.2101 O.2     
  23 O23            7.4960     6.4760    -6.3227 O.3     
  24 C24            3.7096    -0.7168    -0.0359 C.3     
  25 C25            1.1483     3.5934     0.0099 C.3     
  26 H26           -0.9595     1.9052     0.0170 H       
  27 H27           -0.9263    -0.5558     0.0080 H       
  28 H28            1.2194    -1.7613    -0.0179 H       
  29 H29            4.2925     1.5296    -1.8602 H       
  30 H30            3.3832     3.0597    -1.8443 H       
  31 H31            5.2025     4.1273    -0.5407 H       
  32 H32            6.1117     2.5972    -0.5566 H       
  33 H33           10.8996     6.5219    -3.5763 H       
  34 H34            9.6051     5.6931     1.1233 H       
  35 H35           11.6647     6.9223     0.6016 H       
  36 H36           12.3109     7.3336    -1.7355 H       
  37 H37            9.4258     5.0664    -4.9223 H       
  38 H38            7.8978     4.1551    -4.8654 H       
  39 H39            7.0120     7.2712    -6.5843 H       
  40 H40            4.0168    -0.8901    -1.0673 H       
  41 H41            4.4674    -0.1217     0.4738 H       
  42 H42            3.5946    -1.6730     0.4745 H       
  43 H43            1.1528     3.9514     1.0394 H       
  44 H44            2.0282     3.9718    -0.5102 H       
  45 H45            0.2485     3.9467    -0.4937 H       
@<TRIPOS>BOND
   1    1    2 ar
   2    1    6 ar
   3    1   26 1
   4    2    3 ar
   5    2   27 1
   6    3    4 ar
   7    3   28 1
   8    4    5 ar
   9    4   24 1
  10    5    6 ar
  11    5    7 1
  12    6   25 1
  13    7    8 1
  14    8    9 1
  15    8   29 1
  16    8   30 1
  17    9   10 1
  18    9   31 1
  19    9   32 1
  20   10   11 1
  21   11   13 2
  22   11   12 1
  23   12   14 1
  24   12   20 1
  25   13   16 1
  26   14   16 ar
  27   14   15 ar
  28   15   19 ar
  29   15   33 1
  30   16   17 ar
  31   17   18 ar
  32   17   34 1
  33   18   19 ar
  34   18   35 1
  35   19   36 1
  36   20   21 1
  37   20   37 1
  38   20   38 1
  39   21   22 2
  40   21   23 1
  41   23   39 1
  42   24   40 1
  43   24   41 1
  44   24   42 1
  45   25   43 1
  46   25   44 1
  47   25   45 1

#	End of record

