#	Name: ASD01122027
#	Creating user name:	WinNT
#	Creation time:	15. 06. 2019 18:59

#	Modifying user name:	WinNT
#	Modification time:	15. 06. 2019 18:59

#	Program:	/corina/corina34_cracker 3.40 0067  02.08.2006

@<TRIPOS>MOLECULE
ASD01122027
  47   48    0    0    0
SMALL
NO_CHARGES


@<TRIPOS>ATOM
   1 N1            -0.0711     1.2532     0.4915 N.ar    
   2 C2            -0.0342    -0.0637     0.4098 C.ar    
   3 N3             1.0930    -0.7306     0.2676 N.ar    
   4 C4             2.2537    -0.0910     0.2002 C.ar    
   5 C5             2.2681     1.3098     0.2822 C.ar    
   6 C6             1.0421     1.9774     0.4334 C.ar    
   7 N7             3.5722    -0.4807     0.0571 N.am    
   8 C8             4.3365     0.6630     0.0556 C.2     
   9 N9             3.5628     1.7096     0.1882 N.2     
  10 N10            0.9936     3.3595     0.5196 N.pl3   
  11 N11            5.7094     0.7007    -0.0674 N.pl3   
  12 P12           10.4392     2.8085    -0.3731 P.3     
  13 O13           10.7309     2.1912    -1.7832 O.co2   
  14 O14           10.9263     1.8201     0.7406 O.co2   
  15 O15           11.2002     4.1706    -0.2317 O.co2   
  16 O16            5.1968    -1.9506    -0.2668 O.2     
  17 C17            4.0245    -1.7450    -0.0589 C.2     
  18 C18            3.0679    -2.9023     0.0709 C.3     
  19 O19            3.5374    -3.7974     1.0810 O.3     
  20 C20            2.9789    -3.6426    -1.2652 C.3     
  21 O21            2.4354    -2.7701    -2.2578 O.3     
  22 C22            2.0735    -4.8663    -1.1108 C.3     
  23 O23            2.6170    -5.7387    -0.1181 O.3     
  24 C24            1.9845    -5.6065    -2.4468 C.3     
  25 O25            1.0489    -6.6809    -2.3347 O.3     
  26 C26            6.4109     1.9867    -0.0546 C.3     
  27 C27            7.9147     1.7488    -0.2060 C.3     
  28 C28            8.6474     3.0919    -0.1927 C.3     
  29 H29           -0.9618    -0.6146     0.4618 H       
  30 H30            1.8127     3.8772     0.4755 H       
  31 H31            0.1406     3.8094     0.6239 H       
  32 H32            6.2106    -0.1243    -0.1624 H       
  33 H33            2.0814    -2.5292     0.3460 H       
  34 H34            4.4121    -4.1688     0.9018 H       
  35 H35            3.9750    -3.9637    -1.5697 H       
  36 H36            1.5812    -2.3852    -2.0181 H       
  37 H37            1.0774    -4.5451    -0.8062 H       
  38 H38            3.5041    -6.0642    -0.3237 H       
  39 H39            1.6540    -4.9165    -3.2232 H       
  40 H40            2.9651    -6.0044    -2.7078 H       
  41 H41            0.9414    -7.1951    -3.1465 H       
  42 H42            6.0556     2.6027    -0.8807 H       
  43 H43            6.2170     2.4971     0.8888 H       
  44 H44            8.2701     1.1329     0.6200 H       
  45 H45            8.1087     1.2385    -1.1494 H       
  46 H46            8.4535     3.6023     0.7507 H       
  47 H47            8.2920     3.7079    -1.0188 H       
@<TRIPOS>BOND
   1    1    2 ar
   2    1    6 ar
   3    2    3 ar
   4    2   29 1
   5    3    4 ar
   6    4    5 ar
   7    4    7 1
   8    5    6 ar
   9    5    9 1
  10    6   10 1
  11    7    8 1
  12    7   17 am
  13    8    9 2
  14    8   11 1
  15   10   30 1
  16   10   31 1
  17   11   26 1
  18   11   32 1
  19   12   13 ar
  20   12   14 ar
  21   12   15 ar
  22   12   28 1
  23   16   17 2
  24   17   18 1
  25   18   19 1
  26   18   20 1
  27   18   33 1
  28   19   34 1
  29   20   21 1
  30   20   22 1
  31   20   35 1
  32   21   36 1
  33   22   23 1
  34   22   24 1
  35   22   37 1
  36   23   38 1
  37   24   25 1
  38   24   39 1
  39   24   40 1
  40   25   41 1
  41   26   27 1
  42   26   42 1
  43   26   43 1
  44   27   28 1
  45   27   44 1
  46   27   45 1
  47   28   46 1
  48   28   47 1

#	End of record

