#	Name: ASD01918546
#	Creating user name:	WinNT
#	Creation time:	15. 06. 2019 20:11

#	Modifying user name:	WinNT
#	Modification time:	15. 06. 2019 20:11

#	Program:	/corina/corina34_cracker 3.40 0067  02.08.2006

@<TRIPOS>MOLECULE
ASD01918546
  45   47    0    0    0
SMALL
NO_CHARGES


@<TRIPOS>ATOM
   1 C1            -0.0187     1.5258     0.0104 C.3     
   2 C2             0.0021    -0.0041     0.0020 C.3     
   3 O3             0.6932    -0.4774     1.1597 O.3     
   4 C4            -1.4333    -0.5336     0.0129 C.3     
   5 C5            -1.4157    -2.0577    -0.1212 C.3     
   6 C6            -2.7966    -2.5672    -0.1108 C.1     
   7 C7            -3.8980    -2.9735    -0.1024 C.1     
   8 C8            -5.2415    -3.4692    -0.0923 C.ar    
   9 C9            -6.3202    -2.5920     0.0216 C.ar    
  10 N10           -7.5560    -3.0477     0.0310 N.ar    
  11 C11           -7.8242    -4.3355    -0.0660 C.ar    
  12 C12           -6.8102    -5.2692    -0.1826 C.ar    
  13 C13           -5.4945    -4.8413    -0.2023 C.ar    
  14 C14           -7.1354    -6.7367    -0.2919 C.3     
  15 H15           -6.2721    -7.3408    -0.0129 H       
  16 N16           -8.2948    -7.0730     0.5485 N.am    
  17 C17           -9.2784    -7.5363    -0.2348 C.2     
  18 O18          -10.3579    -7.8906     0.1960 O.2     
  19 O19           -8.9635    -7.5723    -1.5344 O.3     
  20 C20           -7.5999    -7.0832    -1.7196 C.3     
  21 H21           -7.5943    -6.1938    -2.3497 H       
  22 C22           -6.7262    -8.1582    -2.3131 C.ar    
  23 C23           -7.0018    -9.4892    -2.0621 C.ar    
  24 C24           -6.2011   -10.4766    -2.6059 C.ar    
  25 C25           -5.1244   -10.1337    -3.4011 C.ar    
  26 C26           -4.8476    -8.8005    -3.6537 C.ar    
  27 F27           -3.7951    -8.4641    -4.4310 F       
  28 C28           -5.6531    -7.8130    -3.1129 C.ar    
  29 H29            1.0039     1.9031     0.0027 H       
  30 H30           -0.5459     1.8868    -0.8726 H       
  31 H31           -0.5289     1.8773     0.9072 H       
  32 H32            0.5123    -0.3556    -0.8948 H       
  33 H33            0.2938    -0.2021     1.9962 H       
  34 H34           -1.9156    -0.2570     0.9504 H       
  35 H35           -1.9862    -0.1019    -0.8214 H       
  36 H36           -0.9334    -2.3344    -1.0587 H       
  37 H37           -0.8628    -2.4894     0.7131 H       
  38 H38           -6.1405    -1.5302     0.1032 H       
  39 H39           -8.8522    -4.6664    -0.0538 H       
  40 H40           -4.6835    -5.5483    -0.2961 H       
  41 H41           -8.3398    -6.9757     1.5126 H       
  42 H42           -7.8430    -9.7582    -1.4404 H       
  43 H43           -6.4171   -11.5163    -2.4088 H       
  44 H44           -4.4987   -10.9051    -3.8252 H       
  45 H45           -5.4407    -6.7731    -3.3126 H       
@<TRIPOS>BOND
   1    1    2 1
   2    1   29 1
   3    1   30 1
   4    1   31 1
   5    2    3 1
   6    2    4 1
   7    2   32 1
   8    3   33 1
   9    4    5 1
  10    4   34 1
  11    4   35 1
  12    5    6 1
  13    5   36 1
  14    5   37 1
  15    6    7 3
  16    7    8 1
  17    8   13 ar
  18    8    9 ar
  19    9   10 ar
  20    9   38 1
  21   10   11 ar
  22   11   12 ar
  23   11   39 1
  24   12   13 ar
  25   12   14 1
  26   13   40 1
  27   14   15 1
  28   14   20 1
  29   14   16 1
  30   16   17 am
  31   16   41 1
  32   17   18 2
  33   17   19 1
  34   19   20 1
  35   20   21 1
  36   20   22 1
  37   22   28 ar
  38   22   23 ar
  39   23   24 ar
  40   23   42 1
  41   24   25 ar
  42   24   43 1
  43   25   26 ar
  44   25   44 1
  45   26   27 1
  46   26   28 ar
  47   28   45 1

#	End of record

