#	Name: ASD03082341
#	Creating user name:	WinNT
#	Creation time:	15. 06. 2019 20:27

#	Modifying user name:	WinNT
#	Modification time:	15. 06. 2019 20:27

#	Program:	/corina/corina34_cracker 3.40 0067  02.08.2006

@<TRIPOS>MOLECULE
ASD03082341
  38   40    0    0    0
SMALL
NO_CHARGES


@<TRIPOS>ATOM
   1 C1            -0.7903    -0.8257     1.6411 C.ar    
   2 C2            -0.4332    -0.4633     0.3495 C.ar    
   3 C3             0.8761    -0.0959     0.0685 C.ar    
   4 C4             1.8249    -0.0913     1.0767 C.ar    
   5 C5             1.4634    -0.4556     2.3721 C.ar    
   6 C6             0.1563    -0.8215     2.6482 C.ar    
   7 O7             3.1534     0.2221     1.0664 O.3     
   8 C8             3.5079     0.4407     2.4447 C.3     
   9 O9             2.5667    -0.3700     3.1728 O.3     
  10 F10            4.8173     0.0131     2.6892 F       
  11 F11            3.3589     1.7901     2.7825 F       
  12 N12           -1.3931    -0.4686    -0.6700 N.pl3   
  13 C13           -2.5362     0.2669    -0.5356 C.2     
  14 N14           -3.6684    -0.1624    -1.0765 N.2     
  15 S15           -2.5065     1.7861     0.3566 S.3     
  16 C16           -4.8118     0.4911    -0.8418 C.2     
  17 C17           -6.0923    -0.0419    -1.3683 C.ar    
  18 O18           -4.8016     1.5236    -0.1958 O.2     
  19 C19           -7.2980     0.6254    -1.1344 C.ar    
  20 C20           -8.4675     0.0948    -1.6425 C.ar    
  21 N21           -8.4568    -1.0245    -2.3389 N.ar    
  22 C22           -7.3414    -1.6858    -2.5828 C.ar    
  23 C23           -6.1253    -1.2215    -2.1164 C.ar    
  24 Cl24          -7.4006    -3.1543    -3.5068 Cl      
  25 C25           -9.7739     0.8049    -1.3971 C.3     
  26 C26           -0.7450     2.1850     0.2394 C.3     
  27 H27           -1.8097    -1.1071     1.8601 H       
  28 H28            1.1544     0.1858    -0.9363 H       
  29 H29           -0.1238    -1.1038     3.6523 H       
  30 H30           -1.2463    -0.9945    -1.4717 H       
  31 H31           -7.3149     1.5425    -0.5642 H       
  32 H32           -5.2157    -1.7672    -2.3197 H       
  33 H33           -9.9579     1.5158    -2.2026 H       
  34 H34          -10.5832     0.0756    -1.3641 H       
  35 H35           -9.7253     1.3370    -0.4470 H       
  36 H36           -0.2139     1.7351     1.0783 H       
  37 H37           -0.3451     1.7933    -0.6958 H       
  38 H38           -0.6149     3.2669     0.2653 H       
@<TRIPOS>BOND
   1    1    2 ar
   2    1    6 ar
   3    1   27 1
   4    2    3 ar
   5    2   12 1
   6    3    4 ar
   7    3   28 1
   8    4    5 ar
   9    4    7 1
  10    5    6 ar
  11    5    9 1
  12    6   29 1
  13    7    8 1
  14    8    9 1
  15    8   10 1
  16    8   11 1
  17   12   13 1
  18   12   30 1
  19   13   14 2
  20   13   15 1
  21   14   16 1
  22   15   26 1
  23   16   17 1
  24   16   18 2
  25   17   19 ar
  26   17   23 ar
  27   19   20 ar
  28   19   31 1
  29   20   21 ar
  30   20   25 1
  31   21   22 ar
  32   22   23 ar
  33   22   24 1
  34   23   32 1
  35   25   33 1
  36   25   34 1
  37   25   35 1
  38   26   36 1
  39   26   37 1
  40   26   38 1

#	End of record

