#	Name: ASD03731879
#	Creating user name:	WinNT
#	Creation time:	15. 06. 2019 20:46

#	Modifying user name:	WinNT
#	Modification time:	15. 06. 2019 20:46

#	Program:	/corina/corina34_cracker 3.40 0067  02.08.2006

@<TRIPOS>MOLECULE
ASD03731879
  36   37    0    0    0
SMALL
NO_CHARGES


@<TRIPOS>ATOM
   1 C1             0.7583     1.4139    -0.4021 C.2     
   2 C2             0.5738    -0.0457    -0.3017 C.ar    
   3 C3             1.5333    -0.9118    -0.8347 C.ar    
   4 C4             1.3576    -2.2737    -0.7384 C.ar    
   5 C5             0.2277    -2.7883    -0.1121 C.ar    
   6 C6            -0.7286    -1.9306     0.4192 C.ar    
   7 C7            -0.5579    -0.5671     0.3318 C.ar    
   8 O8             1.7451     1.8654    -0.9486 O.2     
   9 O9            -0.1703     2.2470     0.1073 O.3     
  10 C10            2.7579    -0.3552    -1.5141 C.3     
  11 O11            3.5798    -1.4312    -1.9709 O.3     
  12 C12            4.7738    -1.0099    -2.6333 C.3     
  13 O13            0.0581    -4.1313    -0.0197 O.3     
  14 C14            0.5846    -4.7682     1.0593 C.ar    
  15 C15            1.1763    -4.0353     2.0783 C.ar    
  16 C16            1.7108    -4.6844     3.1739 C.ar    
  17 C17            1.6566    -6.0649     3.2559 C.ar    
  18 C18            1.0671    -6.7974     2.2411 C.ar    
  19 C19            0.5262    -6.1515     1.1461 C.ar    
  20 C20            2.3540    -3.8890     4.2806 C.3     
  21 F21            2.2884    -2.5256     3.9738 F       
  22 F22            1.6780    -4.1298     5.4815 F       
  23 F23            3.6926    -4.2732     4.4137 F       
  24 Cl24           2.3297    -6.8784     4.6339 Cl      
  25 H25            2.0981    -2.9434    -1.1502 H       
  26 H26           -1.6048    -2.3343     0.9048 H       
  27 H27           -1.2993     0.0985     0.7484 H       
  28 H28           -0.0056     3.1956     0.0175 H       
  29 H29            2.4554     0.2569    -2.3637 H       
  30 H30            3.3192     0.2561    -0.8074 H       
  31 H31            5.3421    -1.8848    -2.9492 H       
  32 H32            4.5131    -0.4114    -3.5062 H       
  33 H33            5.3769    -0.4122    -1.9499 H       
  34 H34            1.2191    -2.9580     2.0145 H       
  35 H35            1.0261    -7.8746     2.3068 H       
  36 H36            0.0618    -6.7234     0.3564 H       
@<TRIPOS>BOND
   1    1    2 1
   2    1    8 2
   3    1    9 1
   4    2    3 ar
   5    2    7 ar
   6    3    4 ar
   7    3   10 1
   8    4    5 ar
   9    4   25 1
  10    5    6 ar
  11    5   13 1
  12    6    7 ar
  13    6   26 1
  14    7   27 1
  15    9   28 1
  16   10   11 1
  17   10   29 1
  18   10   30 1
  19   11   12 1
  20   12   31 1
  21   12   32 1
  22   12   33 1
  23   13   14 1
  24   14   15 ar
  25   14   19 ar
  26   15   16 ar
  27   15   34 1
  28   16   17 ar
  29   16   20 1
  30   17   18 ar
  31   17   24 1
  32   18   19 ar
  33   18   35 1
  34   19   36 1
  35   20   21 1
  36   20   22 1
  37   20   23 1

#	End of record

