#	Name: ASD01411085
#	Creating user name:	WinNT
#	Creation time:	15. 06. 2019 19:19

#	Modifying user name:	WinNT
#	Modification time:	15. 06. 2019 19:19

#	Program:	/corina/corina34_cracker 3.40 0067  02.08.2006

@<TRIPOS>MOLECULE
ASD01411085
  37   39    0    0    0
SMALL
NO_CHARGES


@<TRIPOS>ATOM
   1 C1            -0.0098     1.5697     0.7781 C.2     
   2 C2            -0.0188     0.1625     1.1063 C.ar    
   3 C3             1.2459     1.8793     0.3791 C.2     
   4 C4            -1.1276     2.5800     0.8413 C.3     
   5 C5             1.3015    -0.3014     0.8701 C.ar    
   6 C6            -1.0190    -0.7016     1.5664 C.ar    
   7 C7             1.6453     3.2718    -0.0494 C.3     
   8 N8             2.0362     0.7648     0.4324 N.pl3   
   9 C9            -0.5017     3.9803     0.7693 C.3     
  10 C10            1.6374    -1.6360     1.0909 C.ar    
  11 C11           -0.6569    -2.0207     1.7769 C.ar    
  12 Cl12          -2.6370    -0.1451     1.8597 Cl      
  13 O13            0.4505     4.0233    -0.2973 O.3     
  14 C14            2.4553     3.9417     1.0623 C.3     
  15 C15            2.4843     3.1982    -1.3267 C.3     
  16 C16            0.6317    -2.4727     1.5458 C.ar    
  17 Cl17           3.2460    -2.2240     0.8076 Cl      
  18 C18            1.6706     2.5662    -2.4265 C.2     
  19 H19            2.9763     0.7352     0.1950 H       
  20 O20            0.5035     2.3119    -2.2447 O.2     
  21 O21            2.2424     2.2858    -3.6081 O.3     
  22 H22            1.6803     1.8808    -4.2827 H       
  23 C23            3.6708     3.1546     1.3263 C.1     
  24 C24            2.8475     5.3550     0.6268 C.3     
  25 N25            4.6089     2.5471     1.5300 N.1     
  26 H26           -1.8042     2.4347    -0.0008 H       
  27 H27           -1.6737     2.4678     1.7779 H       
  28 H28           -1.2831     4.7188     0.5902 H       
  29 H29           -0.0001     4.2030     1.7110 H       
  30 H30           -1.4011    -2.7181     2.1321 H       
  31 H31            1.8529     3.9950     1.9692 H       
  32 H32            2.7801     4.2038    -1.6256 H       
  33 H33            3.3748     2.5972    -1.1424 H       
  34 H34            0.8601    -3.5127     1.7265 H       
  35 H35            1.9543     5.9047     0.3300 H       
  36 H36            3.3318     5.8697     1.4567 H       
  37 H37            3.5357     5.2975    -0.2164 H       
@<TRIPOS>BOND
   1    1    2 1
   2    1    3 2
   3    1    4 1
   4    2    5 ar
   5    2    6 ar
   6    3    7 1
   7    3    8 1
   8    4    9 1
   9    4   26 1
  10    4   27 1
  11    5   10 ar
  12    5    8 1
  13    6   11 ar
  14    6   12 1
  15    7   14 1
  16    7   15 1
  17    7   13 1
  18    8   19 1
  19    9   13 1
  20    9   28 1
  21    9   29 1
  22   10   16 ar
  23   10   17 1
  24   11   16 ar
  25   11   30 1
  26   14   23 1
  27   14   24 1
  28   14   31 1
  29   15   18 1
  30   15   32 1
  31   15   33 1
  32   16   34 1
  33   18   20 2
  34   18   21 1
  35   21   22 1
  36   23   25 3
  37   24   35 1
  38   24   36 1
  39   24   37 1

#	End of record

