#	Name: ASD01410633
#	Creating user name:	WinNT
#	Creation time:	15. 06. 2019 19:18

#	Modifying user name:	WinNT
#	Modification time:	15. 06. 2019 19:18

#	Program:	/corina/corina34_cracker 3.40 0067  02.08.2006

@<TRIPOS>MOLECULE
ASD01410633
  63   66    0    0    0
SMALL
NO_CHARGES


@<TRIPOS>ATOM
   1 C1             1.7674     3.6447     2.8511 C.ar    
   2 C2             2.4711     3.2095     3.9654 C.ar    
   3 C3             3.6011     2.4351     3.7909 C.ar    
   4 N4             4.0162     2.1073     2.5824 N.ar    
   5 C5             3.3726     2.5029     1.4963 C.ar    
   6 C6             2.2282     3.2836     1.5968 C.ar    
   7 O7             3.8347     2.1426     0.2727 O.3     
   8 C8             5.0098     1.4615     0.2093 C.ar    
   9 C9             5.0864     0.1650     0.7040 C.ar    
  10 C10            6.2741    -0.5353     0.6447 C.ar    
  11 C11            7.4028     0.0523     0.0897 C.ar    
  12 C12            7.3320     1.3613    -0.4115 C.ar    
  13 C13            6.1234     2.0593    -0.3522 C.ar    
  14 N14            8.6016    -0.6547     0.0310 N.am    
  15 C15            8.9216    -1.3475    -1.0799 C.2     
  16 C16            9.5145    -0.6451     1.1767 C.3     
  17 O17            9.9308    -2.0241    -1.1044 O.2     
  18 C18            8.0437    -1.2841    -2.2705 C.ar    
  19 C19            2.0072     3.5784     5.3510 C.3     
  20 N20            7.0040    -0.4584    -2.2782 N.ar    
  21 C21            6.1998    -0.3714    -3.3145 C.ar    
  22 C22            6.4106    -1.1457    -4.4465 C.ar    
  23 C23            7.4858    -2.0218    -4.4800 C.ar    
  24 C24            8.3192    -2.0875    -3.3751 C.ar    
  25 Cl25           5.3394    -1.0198    -5.8069 Cl      
  26 C26           10.8843    -0.1278     0.7330 C.3     
  27 C27            9.6592    -2.0660     1.7253 C.3     
  28 O28            8.4039    -2.5048     2.2484 O.3     
  29 C29            8.4297    -3.8275     2.7887 C.3     
  30 N30            1.0807     2.5562     5.8441 N.pl3   
  31 N31            1.4313     1.5102     6.5049 N.2     
  32 C32            0.3559     0.8110     6.7891 C.2     
  33 C33           -0.7165     1.5188     6.2415 C.2     
  34 N34           -0.1944     2.5856     5.6799 N.2     
  35 C35            1.4983     3.7319     0.3570 C.3     
  36 F36            0.3874     4.5000     0.7219 F       
  37 F37            2.3562     4.5006    -0.4370 F       
  38 F38            1.0737     2.6113    -0.3650 F       
  39 C39            8.5249     1.9941    -1.0021 C.2     
  40 O40            9.5469     1.3519    -1.1420 O.2     
  41 O41            8.4821     3.2848    -1.3870 O.3     
  42 H42            0.8781     4.2477     2.9603 H       
  43 H43            4.1523     2.0939     4.6548 H       
  44 H44            4.2117    -0.2970     1.1374 H       
  45 H45            6.3257    -1.5425     1.0312 H       
  46 H46            6.0609     3.0668    -0.7362 H       
  47 H47            9.1148     0.0057     1.9544 H       
  48 H48            2.8674     3.6410     6.0175 H       
  49 H49            1.5007     4.5431     5.3197 H       
  50 H50            5.3637     0.3116    -3.2843 H       
  51 H51            7.6715    -2.6353    -5.3492 H       
  52 H52            9.1658    -2.7580    -3.3669 H       
  53 H53           10.8047     0.9249     0.4617 H       
  54 H54           11.5970    -0.2394     1.5502 H       
  55 H55           11.2272    -0.7002    -0.1288 H       
  56 H56            9.9726    -2.7349     0.9237 H       
  57 H57           10.4065    -2.0748     2.5188 H       
  58 H58            9.1515    -3.8728     3.6043 H       
  59 H59            7.4398    -4.0857     3.1649 H       
  60 H60            8.7176    -4.5329     2.0092 H       
  61 H61            0.3105    -0.1204     7.3340 H       
  62 H62           -1.7612     1.2472     6.2765 H       
  63 H63            9.2892     3.6560    -1.7690 H       
@<TRIPOS>BOND
   1    1    2 ar
   2    1    6 ar
   3    1   42 1
   4    2    3 ar
   5    2   19 1
   6    3    4 ar
   7    3   43 1
   8    4    5 ar
   9    5    6 ar
  10    5    7 1
  11    6   35 1
  12    7    8 1
  13    8    9 ar
  14    8   13 ar
  15    9   10 ar
  16    9   44 1
  17   10   11 ar
  18   10   45 1
  19   11   12 ar
  20   11   14 1
  21   12   13 ar
  22   12   39 1
  23   13   46 1
  24   14   15 am
  25   14   16 1
  26   15   17 2
  27   15   18 1
  28   16   26 1
  29   16   27 1
  30   16   47 1
  31   18   20 ar
  32   18   24 ar
  33   19   30 1
  34   19   48 1
  35   19   49 1
  36   20   21 ar
  37   21   22 ar
  38   21   50 1
  39   22   23 ar
  40   22   25 1
  41   23   24 ar
  42   23   51 1
  43   24   52 1
  44   26   53 1
  45   26   54 1
  46   26   55 1
  47   27   28 1
  48   27   56 1
  49   27   57 1
  50   28   29 1
  51   29   58 1
  52   29   59 1
  53   29   60 1
  54   30   31 1
  55   30   34 1
  56   31   32 2
  57   32   33 1
  58   32   61 1
  59   33   34 2
  60   33   62 1
  61   35   36 1
  62   35   37 1
  63   35   38 1
  64   39   40 2
  65   39   41 1
  66   41   63 1

#	End of record

