#	Name: ASD03930098
#	Creating user name:	WinNT
#	Creation time:	15. 06. 2019 20:47

#	Modifying user name:	WinNT
#	Modification time:	15. 06. 2019 20:47

#	Program:	/corina/corina34_cracker 3.40 0067  02.08.2006

@<TRIPOS>MOLECULE
ASD03930098
  40   43    0    0    0
SMALL
NO_CHARGES


@<TRIPOS>ATOM
   1 C1            -0.0173     1.4248     0.0099 C.3     
   2 O2             0.0021    -0.0041     0.0020 O.3     
   3 C3             0.6262    -0.6188     1.0422 C.ar    
   4 C4             1.2084     0.1448     2.0505 C.ar    
   5 C5             1.8447    -0.4611     3.1115 C.ar    
   6 C6             1.9105    -1.8481     3.1834 C.ar    
   7 C7             1.3230    -2.6236     2.1658 C.ar    
   8 C8             0.6750    -1.9972     1.0968 C.ar    
   9 C9             1.5590    -4.0205     2.5259 C.2     
  10 C10            2.2485    -4.0172     3.6945 C.2     
  11 N11            2.4648    -2.7197     4.0979 N.pl3   
  12 C12            2.6974    -5.2222     4.4227 C.ar    
  13 C13            3.4026    -5.0922     5.6213 C.ar    
  14 C14            3.8200    -6.2155     6.2992 C.ar    
  15 C15            3.5391    -7.4831     5.7892 C.ar    
  16 C16            2.8348    -7.6140     4.5922 C.ar    
  17 C17            2.4116    -6.4920     3.9158 C.ar    
  18 C18            3.9899    -8.6923     6.5196 C.ar    
  19 C19            3.7109    -9.9605     6.0127 C.ar    
  20 C20            4.1333   -11.0823     6.6966 C.ar    
  21 C21            4.8324   -10.9499     7.8830 C.ar    
  22 C22            5.1122    -9.6939     8.3907 C.ar    
  23 C23            4.6993    -8.5650     7.7128 C.ar    
  24 H24            1.0053     1.8021     0.0021 H       
  25 H25           -0.5445     1.7859    -0.8732 H       
  26 H26           -0.5275     1.7763     0.9067 H       
  27 H27            1.1610     1.2226     2.0002 H       
  28 H28            2.2930     0.1415     3.8876 H       
  29 H29            0.2230    -2.5883     0.3140 H       
  30 H30            1.2440    -4.8900     1.9681 H       
  31 H31            2.9364    -2.4573     4.9040 H       
  32 H32            3.6208    -4.1109     6.0159 H       
  33 H33            4.3653    -6.1152     7.2260 H       
  34 H34            2.6178    -8.5958     4.1981 H       
  35 H35            1.8661    -6.5935     2.9892 H       
  36 H36            3.1649   -10.0650     5.0868 H       
  37 H37            3.9174   -12.0653     6.3051 H       
  38 H38            5.1607   -11.8306     8.4150 H       
  39 H39            5.6583    -9.5966     9.3174 H       
  40 H40            4.9182    -7.5849     8.1102 H       
@<TRIPOS>BOND
   1    1    2 1
   2    1   24 1
   3    1   25 1
   4    1   26 1
   5    2    3 1
   6    3    4 ar
   7    3    8 ar
   8    4    5 ar
   9    4   27 1
  10    5    6 ar
  11    5   28 1
  12    6    7 ar
  13    6   11 1
  14    7    8 ar
  15    7    9 1
  16    8   29 1
  17    9   10 2
  18    9   30 1
  19   10   11 1
  20   10   12 1
  21   11   31 1
  22   12   13 ar
  23   12   17 ar
  24   13   14 ar
  25   13   32 1
  26   14   15 ar
  27   14   33 1
  28   15   16 ar
  29   15   18 1
  30   16   17 ar
  31   16   34 1
  32   17   35 1
  33   18   19 ar
  34   18   23 ar
  35   19   20 ar
  36   19   36 1
  37   20   21 ar
  38   20   37 1
  39   21   22 ar
  40   21   38 1
  41   22   23 ar
  42   22   39 1
  43   23   40 1

#	End of record

