#	Name: ASD01883899
#	Creating user name:	WinNT
#	Creation time:	15. 06. 2019 19:47

#	Modifying user name:	WinNT
#	Modification time:	15. 06. 2019 19:47

#	Program:	/corina/corina34_cracker 3.40 0067  02.08.2006

@<TRIPOS>MOLECULE
ASD01883899
  50   55    0    0    0
SMALL
NO_CHARGES


@<TRIPOS>ATOM
   1 C1            -0.0184     1.5028     0.0103 C.3     
   2 C2             0.0021    -0.0041     0.0020 C.ar    
   3 C3             0.0055    -0.6790    -1.2043 C.ar    
   4 C4             0.0243    -2.0643    -1.2046 C.ar    
   5 C5             0.0391    -2.7258     0.0205 C.ar    
   6 C6             0.0345    -1.9775     1.1905 C.ar    
   7 N7             0.0218    -0.6604     1.1458 N.ar    
   8 N8             0.0580    -4.1254     0.0722 N.pl3   
   9 C9            -0.7895    -4.9502    -0.6191 C.2     
  10 C10           -0.5038    -6.2329    -0.3459 C.2     
  11 C11            0.6183    -6.2315     0.5974 C.ar    
  12 C12            1.3456    -7.2361     1.2346 C.ar    
  13 C13            2.3802    -6.8929     2.0956 C.ar    
  14 C14            2.6887    -5.5464     2.3210 C.ar    
  15 C15            1.9731    -4.5510     1.6944 C.ar    
  16 F16            2.2801    -3.2548     1.9199 F       
  17 C17            0.9366    -4.8794     0.8224 C.ar    
  18 C18            3.1583    -7.9540     2.7769 C.2     
  19 C19            2.5319    -8.8086     3.7165 C.2     
  20 C20            3.2404    -9.7719     4.3345 C.2     
  21 N21            4.5691    -9.9429     4.0695 N.pl3   
  22 C22            5.5113   -10.8100     4.5324 C.2     
  23 C23            5.2950   -11.9006     5.5497 C.3     
  24 C24            4.8931   -13.1923     4.8350 C.3     
  25 C25            5.8426   -14.3867     4.9473 C.3     
  26 C26            4.5134   -14.3923     5.7049 C.3     
  27 N27            6.6383   -10.5243     3.9329 N.2     
  28 N28            6.4759    -9.5375     3.1233 N.2     
  29 C29            5.2149    -9.1355     3.1649 C.2     
  30 C30            4.5022    -8.1234     2.4974 C.2     
  31 Cl31           5.2988    -7.0976     1.3455 Cl      
  32 H32            1.0042     1.8801     0.0026 H       
  33 H33           -0.5455     1.8639    -0.8728 H       
  34 H34           -0.5286     1.8543     0.9071 H       
  35 H35           -0.0067    -0.1327    -2.1359 H       
  36 H36            0.0271    -2.6175    -2.1322 H       
  37 H37            0.0459    -2.4799     2.1464 H       
  38 H38           -1.5720    -4.6176    -1.2850 H       
  39 H39           -1.0058    -7.1017    -0.7453 H       
  40 H40            1.1059    -8.2746     1.0601 H       
  41 H41            3.4941    -5.2862     2.9919 H       
  42 H42            1.4820    -8.6866     3.9384 H       
  43 H43            2.7519   -10.4176     5.0492 H       
  44 H44            6.2171   -12.0656     6.1071 H       
  45 H45            4.5029   -11.6042     6.2373 H       
  46 H46            4.3565   -13.0622     3.8952 H       
  47 H47            5.9310   -15.0426     4.0812 H       
  48 H48            6.7537   -14.2523     5.5304 H       
  49 H49            4.5500   -14.2615     6.7864 H       
  50 H50            3.7273   -15.0518     5.3373 H       
@<TRIPOS>BOND
   1    1    2 1
   2    1   32 1
   3    1   33 1
   4    1   34 1
   5    2    7 ar
   6    2    3 ar
   7    3    4 ar
   8    3   35 1
   9    4    5 ar
  10    4   36 1
  11    5    6 ar
  12    5    8 1
  13    6    7 ar
  14    6   37 1
  15    8   17 1
  16    8    9 1
  17    9   10 2
  18    9   38 1
  19   10   11 1
  20   10   39 1
  21   11   17 ar
  22   11   12 ar
  23   12   13 ar
  24   12   40 1
  25   13   14 ar
  26   13   18 1
  27   14   15 ar
  28   14   41 1
  29   15   16 1
  30   15   17 ar
  31   18   30 2
  32   18   19 1
  33   19   20 2
  34   19   42 1
  35   20   21 1
  36   20   43 1
  37   21   29 1
  38   21   22 1
  39   22   23 1
  40   22   27 2
  41   23   24 1
  42   23   44 1
  43   23   45 1
  44   24   26 1
  45   24   25 1
  46   24   46 1
  47   25   26 1
  48   25   47 1
  49   25   48 1
  50   26   49 1
  51   26   50 1
  52   27   28 1
  53   28   29 2
  54   29   30 1
  55   30   31 1

#	End of record

