#	Name: ASD04880002
#	Creating user name:	WinNT
#	Creation time:	15. 06. 2019 20:52

#	Modifying user name:	WinNT
#	Modification time:	15. 06. 2019 20:52

#	Program:	/corina/corina34_cracker 3.40 0067  02.08.2006

@<TRIPOS>MOLECULE
ASD04880002
  50   51    0    0    0
SMALL
NO_CHARGES


@<TRIPOS>ATOM
   1 N1             0.3539    -1.0905     1.6264 N.1     
   2 C2             0.2081    -0.1175     1.0585 C.1     
   3 C3             0.0191     1.1433     0.3227 C.3     
   4 C4             1.3522     1.8210     0.1366 C.ar    
   5 C5             1.7594     2.2067    -1.1272 C.ar    
   6 C6             2.9809     2.8276    -1.3013 C.ar    
   7 C7             3.8000     3.0648    -0.2052 C.ar    
   8 C8             3.3876     2.6765     1.0631 C.ar    
   9 C9             2.1631     2.0609     1.2310 C.ar    
  10 C10            1.7149     1.6393     2.6067 C.3     
  11 C11            2.6956     0.6083     3.1689 C.3     
  12 N12            5.0375     3.6929    -0.3781 N.am    
  13 C13            5.1646     4.6986    -1.2663 C.2     
  14 O14            4.2277     5.0017    -1.9797 O.2     
  15 C15            6.4408     5.4319    -1.3731 C.ar    
  16 C16            7.5180     5.0850    -0.5544 C.ar    
  17 C17            8.7094     5.7705    -0.6557 C.ar    
  18 C18            8.8423     6.8061    -1.5701 C.ar    
  19 C19            7.7709     7.1577    -2.3905 C.ar    
  20 C20            6.5761     6.4714    -2.2978 C.ar    
  21 O21            7.9041     8.1733    -3.2851 O.3     
  22 C22            6.7661     8.4795    -4.0933 C.3     
  23 O23           10.0181     7.4788    -1.6658 O.3     
  24 C24           11.0738     7.0670    -0.7952 C.3     
  25 C25           -0.5982     0.8476    -1.0456 C.3     
  26 C26           -0.9135     2.0615     1.1153 C.3     
  27 H27            1.1219     2.0219    -1.9791 H       
  28 H28            3.2988     3.1280    -2.2888 H       
  29 H29            4.0223     2.8596     1.9176 H       
  30 H30            1.6870     2.5096     3.2623 H       
  31 H31            0.7199     1.1985     2.5454 H       
  32 H32            2.7947    -0.2196     2.4669 H       
  33 H33            3.6686     1.0763     3.3185 H       
  34 H34            2.3223     0.2338     4.1221 H       
  35 H35            5.8044     3.4047     0.1412 H       
  36 H36            7.4172     4.2797     0.1582 H       
  37 H37            9.5414     5.5014    -0.0218 H       
  38 H38            5.7455     6.7426    -2.9325 H       
  39 H39            7.0067     9.3064    -4.7614 H       
  40 H40            6.4927     7.6041    -4.6824 H       
  41 H41            5.9306     8.7614    -3.4524 H       
  42 H42           11.9540     7.6845    -0.9741 H       
  43 H43           10.7551     7.1801     0.2411 H       
  44 H44           11.3175     6.0224    -0.9884 H       
  45 H45           -1.5625     0.3575    -0.9110 H       
  46 H46           -0.7382     1.7813    -1.5905 H       
  47 H47            0.0662     0.1935    -1.6103 H       
  48 H48           -0.5134     2.2073     2.1186 H       
  49 H49           -0.9898     3.0248     0.6110 H       
  50 H50           -1.9018     1.6064     1.1809 H       
@<TRIPOS>BOND
   1    1    2 3
   2    2    3 1
   3    3    4 1
   4    3   25 1
   5    3   26 1
   6    4    5 ar
   7    4    9 ar
   8    5    6 ar
   9    5   27 1
  10    6    7 ar
  11    6   28 1
  12    7    8 ar
  13    7   12 1
  14    8    9 ar
  15    8   29 1
  16    9   10 1
  17   10   11 1
  18   10   30 1
  19   10   31 1
  20   11   32 1
  21   11   33 1
  22   11   34 1
  23   12   13 am
  24   12   35 1
  25   13   14 2
  26   13   15 1
  27   15   16 ar
  28   15   20 ar
  29   16   17 ar
  30   16   36 1
  31   17   18 ar
  32   17   37 1
  33   18   19 ar
  34   18   23 1
  35   19   20 ar
  36   19   21 1
  37   20   38 1
  38   21   22 1
  39   22   39 1
  40   22   40 1
  41   22   41 1
  42   23   24 1
  43   24   42 1
  44   24   43 1
  45   24   44 1
  46   25   45 1
  47   25   46 1
  48   25   47 1
  49   26   48 1
  50   26   49 1
  51   26   50 1

#	End of record

