#	Name: ASD01230719
#	Creating user name:	WinNT
#	Creation time:	15. 06. 2019 19:14

#	Modifying user name:	WinNT
#	Modification time:	15. 06. 2019 19:14

#	Program:	/corina/corina34_cracker 3.40 0067  02.08.2006

@<TRIPOS>MOLECULE
ASD01230719
  43   46    0    0    0
SMALL
NO_CHARGES


@<TRIPOS>ATOM
   1 C1            -0.0447     1.5327     0.9574 C.2     
   2 N2            -0.1129     0.2251     0.8479 N.2     
   3 C3            -1.2545    -0.4207     1.0790 C.2     
   4 C4            -2.3830     0.2298     1.4179 C.2     
   5 N5            -2.4124     1.5995     1.5423 N.pl3   
   6 C6            -1.2539     2.2969     1.3477 C.2     
   7 C7            -3.6982     2.2123     1.8733 C.3     
   8 C8            -3.4942     3.4319     2.7778 C.3     
   9 S9            -2.3781     4.5720     1.9009 S.o2    
  10 N10           -1.1156     3.5899     1.4757 N.am    
  11 C11            1.2302     2.2364     0.6993 C.ar    
  12 C12            2.4452     1.6131     0.9906 C.ar    
  13 O13           -2.9480     4.9856     0.6666 O.2     
  14 O14           -1.8073     5.5111     2.8017 O.2     
  15 C15            1.2222     3.5236     0.1584 C.ar    
  16 C16            2.4124     4.1759    -0.0811 C.ar    
  17 C17            3.6188     3.5544     0.2149 C.ar    
  18 C18            3.6311     2.2720     0.7483 C.ar    
  19 O19            4.7898     4.2004    -0.0230 O.3     
  20 C20            5.9937     3.4601     0.1882 C.3     
  21 C21            7.1363     4.0620    -0.6484 C.3     
  22 C22            6.4264     3.5651     1.6653 C.3     
  23 C23            7.9723     3.6386     1.6039 C.3     
  24 C24            8.2235     4.5117     0.3494 C.3     
  25 H25           -1.2754    -1.4970     0.9915 H       
  26 H26           -3.2855    -0.3361     1.5959 H       
  27 H27           -4.1949     2.5247     0.9547 H       
  28 H28           -4.3224     1.4824     2.3888 H       
  29 H29           -4.4509     3.9195     2.9647 H       
  30 H30           -3.0433     3.1233     3.7210 H       
  31 H31            2.4556     0.6161     1.4057 H       
  32 H32            0.2845     4.0073    -0.0724 H       
  33 H33            2.4070     5.1714    -0.4999 H       
  34 H34            4.5712     1.7921     0.9771 H       
  35 H35            5.8419     2.4155    -0.0838 H       
  36 H36            7.5396     3.3093    -1.3258 H       
  37 H37            6.7726     4.9188    -1.2155 H       
  38 H38            6.0192     4.4688     2.1187 H       
  39 H39            6.1082     2.6823     2.2197 H       
  40 H40            8.3719     4.1205     2.4962 H       
  41 H41            8.4015     2.6450     1.4752 H       
  42 H42            9.2167     4.3197    -0.0564 H       
  43 H43            8.1065     5.5683     0.5904 H       
@<TRIPOS>BOND
   1    1    2 2
   2    1   11 1
   3    1    6 1
   4    2    3 1
   5    3    4 2
   6    3   25 1
   7    4    5 1
   8    4   26 1
   9    5    6 1
  10    5    7 1
  11    6   10 2
  12    7    8 1
  13    7   27 1
  14    7   28 1
  15    8    9 1
  16    8   29 1
  17    8   30 1
  18    9   10 am
  19    9   13 2
  20    9   14 2
  21   11   12 ar
  22   11   15 ar
  23   12   18 ar
  24   12   31 1
  25   15   16 ar
  26   15   32 1
  27   16   17 ar
  28   16   33 1
  29   17   18 ar
  30   17   19 1
  31   18   34 1
  32   19   20 1
  33   20   21 1
  34   20   22 1
  35   20   35 1
  36   21   24 1
  37   21   36 1
  38   21   37 1
  39   22   23 1
  40   22   38 1
  41   22   39 1
  42   23   24 1
  43   23   40 1
  44   23   41 1
  45   24   42 1
  46   24   43 1

#	End of record

