#	Name: ASD01410973
#	Creating user name:	WinNT
#	Creation time:	15. 06. 2019 19:19

#	Modifying user name:	WinNT
#	Modification time:	15. 06. 2019 19:19

#	Program:	/corina/corina34_cracker 3.40 0067  02.08.2006

@<TRIPOS>MOLECULE
ASD01410973
  50   52    0    0    0
SMALL
NO_CHARGES


@<TRIPOS>ATOM
   1 C1            -0.2223     1.7892     0.1140 C.ar    
   2 P2            -0.3482    -0.0167    -0.0020 P.3     
   3 N3            -0.1406    -0.6928     1.5252 N.3     
   4 O4            -1.6816    -0.3856    -0.5277 O.2     
   5 C5            -0.2314    -2.0810     1.4728 C.2     
   6 C6            -1.2141    -2.7892     2.1252 C.2     
   7 S7            -1.0009    -4.5082     1.8241 S.3     
   8 C8             0.4121    -4.1985     0.8256 C.2     
   9 C9             0.6504    -2.8594     0.7596 C.2     
  10 C10           -2.2371    -2.2222     2.9160 C.2     
  11 O11           -2.3486    -1.0121     2.9910 O.2     
  12 O12           -3.0918    -3.0219     3.5891 O.3     
  13 C13            1.2188    -5.2377     0.1520 C.ar    
  14 C14            0.8776    -6.5848     0.2841 C.ar    
  15 C15            1.6339    -7.5500    -0.3473 C.ar    
  16 C16            2.7302    -7.1850    -1.1107 C.ar    
  17 C17            3.0736    -5.8502    -1.2455 C.ar    
  18 C18            2.3216    -4.8755    -0.6236 C.ar    
  19 O19            0.7920    -0.5716    -0.9941 O.3     
  20 C20            0.8863    -0.1831    -2.3660 C.3     
  21 Cl21           3.6780    -8.4056    -1.9015 Cl      
  22 C22           -1.3584     2.5494     0.3183 C.ar    
  23 C23           -1.2624     3.9258     0.4067 C.ar    
  24 C24           -0.0304     4.5415     0.2912 C.ar    
  25 C25            1.1061     3.7810     0.0877 C.ar    
  26 C26            1.0108     2.4047     0.0037 C.ar    
  27 C27            2.2502     1.5753    -0.2128 C.3     
  28 C28            0.0740     6.0418     0.3865 C.3     
  29 C29            1.1351    -0.2707     2.1188 C.3     
  30 H30            1.4701    -2.4412     0.1941 H       
  31 H31           -3.7570    -2.5431     4.1023 H       
  32 H32            0.0233    -6.8708     0.8798 H       
  33 H33            1.3710    -8.5926    -0.2459 H       
  34 H34            3.9297    -5.5715    -1.8422 H       
  35 H35            2.5877    -3.8345    -0.7331 H       
  36 H36            1.0273     0.8959    -2.4292 H       
  37 H37            1.7341    -0.6880    -2.8291 H       
  38 H38           -0.0304    -0.4609    -2.8861 H       
  39 H39           -2.3211     2.0683     0.4086 H       
  40 H40           -2.1502     4.5199     0.5656 H       
  41 H41            2.0688     4.2621    -0.0029 H       
  42 H42            2.4467     1.4877    -1.2814 H       
  43 H43            3.0987     2.0559     0.2744 H       
  44 H44            2.1019     0.5825     0.2120 H       
  45 H45            0.2314     6.3298     1.4259 H       
  46 H46            0.9136     6.3867    -0.2171 H       
  47 H47           -0.8473     6.4942     0.0197 H       
  48 H48            1.1926     0.8177     2.1203 H       
  49 H49            1.1991    -0.6394     3.1425 H       
  50 H50            1.9602    -0.6774     1.5339 H       
@<TRIPOS>BOND
   1    1    2 1
   2    1   22 ar
   3    1   26 ar
   4    2    3 1
   5    2    4 2
   6    2   19 1
   7    3    5 1
   8    3   29 1
   9    5    6 2
  10    5    9 1
  11    6    7 1
  12    6   10 1
  13    7    8 1
  14    8    9 2
  15    8   13 1
  16    9   30 1
  17   10   11 2
  18   10   12 1
  19   12   31 1
  20   13   14 ar
  21   13   18 ar
  22   14   15 ar
  23   14   32 1
  24   15   16 ar
  25   15   33 1
  26   16   17 ar
  27   16   21 1
  28   17   18 ar
  29   17   34 1
  30   18   35 1
  31   19   20 1
  32   20   36 1
  33   20   37 1
  34   20   38 1
  35   22   23 ar
  36   22   39 1
  37   23   24 ar
  38   23   40 1
  39   24   25 ar
  40   24   28 1
  41   25   26 ar
  42   25   41 1
  43   26   27 1
  44   27   42 1
  45   27   43 1
  46   27   44 1
  47   28   45 1
  48   28   46 1
  49   28   47 1
  50   29   48 1
  51   29   49 1
  52   29   50 1

#	End of record

