#	Name: ASD01901233
#	Creating user name:	WinNT
#	Creation time:	15. 06. 2019 19:53

#	Modifying user name:	WinNT
#	Modification time:	15. 06. 2019 19:53

#	Program:	/corina/corina34_cracker 3.40 0067  02.08.2006

@<TRIPOS>MOLECULE
ASD01901233
  44   48    0    0    0
SMALL
NO_CHARGES


@<TRIPOS>ATOM
   1 C1            -0.0166     1.3750     0.0096 C.ar    
   2 C2             0.0021    -0.0041     0.0020 C.ar    
   3 C3             1.2078    -0.6830    -0.0131 C.ar    
   4 C4             2.4027     0.0149    -0.0203 C.ar    
   5 C5             2.3997     1.3941    -0.0129 C.ar    
   6 C6             1.1860     2.0866     0.0019 C.ar    
   7 C7             1.1748     3.5185     0.0097 C.1     
   8 C8             1.1656     4.6925     0.0161 C.1     
   9 C9             1.1543     6.1244     0.0239 C.ar    
  10 C10           -0.0666     8.1943     0.0524 C.ar    
  11 C11           -0.0605     6.8156     0.0450 C.ar    
  12 C12            2.3585     6.8349     0.0162 C.ar    
  13 C13            2.3438     8.2124     0.0237 C.ar    
  14 C14            1.1340     8.8967     0.0394 C.ar    
  15 N15            1.1239    10.2968     0.0465 N.am    
  16 N16            1.1325    12.2810     1.3221 N.am    
  17 C17            1.1409    10.9360     1.2289 C.2     
  18 C18            1.1029    10.9526    -1.1386 C.2     
  19 C19            1.1052    13.0200     0.1647 C.ar    
  20 O20            1.0925    10.3498    -2.1946 O.2     
  21 Cl21          -1.5742     9.0546     0.0780 Cl      
  22 O22            1.1643    10.2777     2.2508 O.2     
  23 C23            1.0925    12.4247    -1.0973 C.ar    
  24 C24            1.0982    14.3818     0.3415 C.ar    
  25 C25            1.0717    13.2453    -2.2216 C.ar    
  26 C26            1.0641    14.6167    -2.0450 C.ar    
  27 C27            1.0773    15.1877    -0.7776 C.ar    
  28 C28            1.1463    13.2148     2.4570 C.3     
  29 C29            1.1242    14.6264     1.8310 C.3     
  30 H30           -0.9584     1.9035     0.0169 H       
  31 H31           -0.9266    -0.5554     0.0083 H       
  32 H32            1.2163    -1.7630    -0.0190 H       
  33 H33            3.3399    -0.5217    -0.0315 H       
  34 H34            3.3331     1.9375    -0.0182 H       
  35 H35           -0.9928     6.2705     0.0551 H       
  36 H36            3.2991     6.3044     0.0048 H       
  37 H37            3.2738     8.7615     0.0178 H       
  38 H38            1.0620    12.8186    -3.2137 H       
  39 H39            1.0479    15.2597    -2.9125 H       
  40 H40            1.0709    16.2622    -0.6692 H       
  41 H41            0.2644    13.0645     3.0796 H       
  42 H42            2.0528    13.0781     3.0467 H       
  43 H43            2.0207    15.1802     2.1097 H       
  44 H44            0.2303    15.1664     2.1432 H       
@<TRIPOS>BOND
   1    1    2 ar
   2    1    6 ar
   3    1   30 1
   4    2    3 ar
   5    2   31 1
   6    3    4 ar
   7    3   32 1
   8    4    5 ar
   9    4   33 1
  10    5    6 ar
  11    5   34 1
  12    6    7 1
  13    7    8 3
  14    8    9 1
  15    9   12 ar
  16    9   11 ar
  17   10   11 ar
  18   10   14 ar
  19   10   21 1
  20   11   35 1
  21   12   13 ar
  22   12   36 1
  23   13   14 ar
  24   13   37 1
  25   14   15 1
  26   15   18 am
  27   15   17 am
  28   16   17 am
  29   16   19 1
  30   16   28 1
  31   17   22 2
  32   18   23 1
  33   18   20 2
  34   19   23 ar
  35   19   24 ar
  36   23   25 ar
  37   24   27 ar
  38   24   29 1
  39   25   26 ar
  40   25   38 1
  41   26   27 ar
  42   26   39 1
  43   27   40 1
  44   28   29 1
  45   28   41 1
  46   28   42 1
  47   29   43 1
  48   29   44 1

#	End of record

