#	Name: ASD03731170
#	Creating user name:	WinNT
#	Creation time:	15. 06. 2019 20:45

#	Modifying user name:	WinNT
#	Modification time:	15. 06. 2019 20:45

#	Program:	/corina/corina34_cracker 3.40 0067  02.08.2006

@<TRIPOS>MOLECULE
ASD03731170
  62   67    0    0    0
SMALL
NO_CHARGES


@<TRIPOS>ATOM
   1 N1            -0.0214     1.3452     0.0032 N.am    
   2 C2             0.0410     0.0123     0.1928 C.2     
   3 O3             1.1211    -0.5394     0.2803 O.2     
   4 N4            -1.0937    -0.7091     0.2853 N.am    
   5 C5            -1.0258    -2.1579     0.4913 C.3     
   6 C6            -2.4431    -2.7302     0.5603 C.3     
   7 O7             2.5002    -7.1197     3.3864 O.3     
   8 C8             2.9633    -8.4127     3.8184 C.3     
   9 O9             1.7985    -9.0112     4.4165 O.3     
  10 C10            0.7295    -8.4321     3.7946 C.ar    
  11 C11            1.1615    -7.2685     3.1622 C.ar    
  12 C12           -0.5987    -8.8105     3.7148 C.ar    
  13 C13           -1.5115    -8.0346     3.0067 C.ar    
  14 C14           -1.0698    -6.8700     2.3861 C.ar    
  15 C15            0.2551    -6.4933     2.4587 C.ar    
  16 O16           -2.8437    -8.2337     2.7924 O.3     
  17 C17           -2.2760    -6.2461     1.7366 C.3     
  18 C18           -3.4502    -6.9922     2.3847 C.3     
  19 N19           -2.3752    -4.1790     0.7663 N.am    
  20 C20           -2.3504    -4.7662     1.9794 C.2     
  21 C21           -2.2672    -6.4046     0.2451 C.ar    
  22 C22           -2.2136    -7.4938    -0.5957 C.ar    
  23 C23           -2.2228    -7.3117    -1.9671 C.ar    
  24 C24           -2.2851    -6.0333    -2.4913 C.ar    
  25 C25           -2.3379    -4.9391    -1.6533 C.ar    
  26 C26           -2.3296    -5.1130    -0.2715 C.ar    
  27 O27           -2.3823    -4.2085     3.0560 O.2     
  28 C28            1.1543     2.1089     0.0021 C.ar    
  29 C29            2.3225     1.5839    -0.5338 C.ar    
  30 C30            3.4804     2.3360    -0.5353 C.ar    
  31 C31            3.4765     3.6178    -0.0008 C.ar    
  32 C32            2.3078     4.1428     0.5353 C.ar    
  33 C33            1.1488     3.3923     0.5318 C.ar    
  34 N34            4.6498     4.3800    -0.0018 N.pl3   
  35 C35            5.9104     3.7834    -0.4504 C.3     
  36 C36            4.6178     5.7746     0.4457 C.3     
  37 H37           -0.8794     1.7756    -0.1365 H       
  38 H38           -1.9552    -0.2689     0.2155 H       
  39 H39           -0.4881    -2.6180    -0.3377 H       
  40 H40           -0.5033    -2.3681     1.4245 H       
  41 H41           -2.9808    -2.2700     1.3893 H       
  42 H42           -2.9656    -2.5199    -0.3729 H       
  43 H43            3.3022    -9.0023     2.9666 H       
  44 H44            3.7606    -8.3077     4.5542 H       
  45 H45           -0.9295    -9.7140     4.2053 H       
  46 H46            0.5863    -5.5912     1.9659 H       
  47 H47           -4.2442    -7.1691     1.6592 H       
  48 H48           -3.8280    -6.4441     3.2478 H       
  49 H49           -2.1648    -8.4911    -0.1842 H       
  50 H50           -2.1817    -8.1658    -2.6269 H       
  51 H51           -2.2921    -5.8912    -3.5619 H       
  52 H52           -2.3858    -3.9439    -2.0702 H       
  53 H53            2.3257     0.5870    -0.9492 H       
  54 H54            4.3892     1.9275    -0.9519 H       
  55 H55            2.3046     5.1394     0.9514 H       
  56 H56            0.2390     3.8020     0.9450 H       
  57 H57            6.0247     3.9394    -1.5231 H       
  58 H58            6.7419     4.2525     0.0756 H       
  59 H59            5.9025     2.7145    -0.2375 H       
  60 H60            3.6233     6.0123     0.8233 H       
  61 H61            5.3516     5.9187     1.2387 H       
  62 H62            4.8547     6.4305    -0.3920 H       
@<TRIPOS>BOND
   1    1    2 am
   2    1   28 1
   3    1   37 1
   4    2    3 2
   5    2    4 am
   6    4    5 1
   7    4   38 1
   8    5    6 1
   9    5   39 1
  10    5   40 1
  11    6   19 1
  12    6   41 1
  13    6   42 1
  14    7    8 1
  15    7   11 1
  16    8    9 1
  17    8   43 1
  18    8   44 1
  19    9   10 1
  20   10   11 ar
  21   10   12 ar
  22   11   15 ar
  23   12   13 ar
  24   12   45 1
  25   13   14 ar
  26   13   16 1
  27   14   15 ar
  28   14   17 1
  29   15   46 1
  30   16   18 1
  31   17   18 1
  32   17   20 1
  33   17   21 1
  34   18   47 1
  35   18   48 1
  36   19   20 am
  37   19   26 1
  38   20   27 2
  39   21   22 ar
  40   21   26 ar
  41   22   23 ar
  42   22   49 1
  43   23   24 ar
  44   23   50 1
  45   24   25 ar
  46   24   51 1
  47   25   26 ar
  48   25   52 1
  49   28   29 ar
  50   28   33 ar
  51   29   30 ar
  52   29   53 1
  53   30   31 ar
  54   30   54 1
  55   31   32 ar
  56   31   34 1
  57   32   33 ar
  58   32   55 1
  59   33   56 1
  60   34   35 1
  61   34   36 1
  62   35   57 1
  63   35   58 1
  64   35   59 1
  65   36   60 1
  66   36   61 1
  67   36   62 1

#	End of record

