#	Name: ASD01915857
#	Creating user name:	WinNT
#	Creation time:	15. 06. 2019 20:06

#	Modifying user name:	WinNT
#	Modification time:	15. 06. 2019 20:06

#	Program:	/corina/corina34_cracker 3.40 0067  02.08.2006

@<TRIPOS>MOLECULE
ASD01915857
  41   43    0    0    0
SMALL
NO_CHARGES


@<TRIPOS>ATOM
   1 C1             0.0137     1.6693    -0.2139 C.2     
   2 N2             0.1382     0.2992    -0.2704 N.pl3   
   3 C3            -1.0426    -0.5726    -0.2496 C.3     
   4 C4            -2.1556     0.1033     0.5494 C.3     
   5 N5            -2.3510     1.4985     0.1704 N.am    
   6 C6            -1.3019     2.3158    -0.0895 C.2     
   7 C7             1.2756     2.1887    -0.2802 C.2     
   8 C8             2.1224     1.0751    -0.3642 C.2     
   9 N9             1.3749    -0.0038    -0.3476 N.2     
  10 C10            3.6261     1.1102    -0.4571 C.3     
  11 O11            4.0724     2.4677    -0.4471 O.3     
  12 C12            5.4130     2.6770    -0.5250 C.ar    
  13 O13           -1.4403     3.5178    -0.2130 O.2     
  14 C14            5.9157     3.9700    -0.5203 C.ar    
  15 C15            6.2813     1.5979    -0.6036 C.ar    
  16 C16            7.6435     1.8133    -0.6828 C.ar    
  17 C17            8.1418     3.1031    -0.6837 C.ar    
  18 C18            7.2788     4.1801    -0.5996 C.ar    
  19 C19           -3.7130     2.0282     0.0684 C.3     
  20 C20           -4.4628     1.7625     1.3754 C.3     
  21 C21           -4.4427     1.3401    -1.0870 C.3     
  22 O22           -4.6211    -0.0443    -0.7806 O.3     
  23 H23           -1.3827    -0.7488    -1.2701 H       
  24 H24           -0.7849    -1.5230     0.2177 H       
  25 H25           -3.0863    -0.4398     0.3856 H       
  26 H26           -1.9056     0.0580     1.6094 H       
  27 H27            1.5590     3.2308    -0.2701 H       
  28 H28            4.0552     0.5804     0.3934 H       
  29 H29            3.9443     0.6300    -1.3825 H       
  30 H30            5.2421     4.8116    -0.4551 H       
  31 H31            5.8926     0.5903    -0.6026 H       
  32 H32            8.3199     0.9736    -0.7436 H       
  33 H33            9.2071     3.2694    -0.7456 H       
  34 H34            7.6704     5.1866    -0.6009 H       
  35 H35           -3.6726     3.1018    -0.1154 H       
  36 H36           -4.5033     0.6889     1.5593 H       
  37 H37           -3.9430     2.2527     2.1986 H       
  38 H38           -5.4762     2.1566     1.2996 H       
  39 H39           -5.4161     1.8084    -1.2324 H       
  40 H40           -3.8529     1.4374    -1.9985 H       
  41 H41           -5.0781    -0.5441    -1.4709 H       
@<TRIPOS>BOND
   1    1    2 1
   2    1    7 2
   3    1    6 1
   4    2    3 1
   5    2    9 1
   6    3    4 1
   7    3   23 1
   8    3   24 1
   9    4    5 1
  10    4   25 1
  11    4   26 1
  12    5    6 am
  13    5   19 1
  14    6   13 2
  15    7    8 1
  16    7   27 1
  17    8    9 2
  18    8   10 1
  19   10   11 1
  20   10   28 1
  21   10   29 1
  22   11   12 1
  23   12   14 ar
  24   12   15 ar
  25   14   18 ar
  26   14   30 1
  27   15   16 ar
  28   15   31 1
  29   16   17 ar
  30   16   32 1
  31   17   18 ar
  32   17   33 1
  33   18   34 1
  34   19   20 1
  35   19   21 1
  36   19   35 1
  37   20   36 1
  38   20   37 1
  39   20   38 1
  40   21   22 1
  41   21   39 1
  42   21   40 1
  43   22   41 1

#	End of record

