#	Name: ASD01810397
#	Creating user name:	WinNT
#	Creation time:	15. 06. 2019 19:24

#	Modifying user name:	WinNT
#	Modification time:	15. 06. 2019 19:24

#	Program:	/corina/corina34_cracker 3.40 0067  02.08.2006

@<TRIPOS>MOLECULE
ASD01810397
  46   49    0    0    0
SMALL
NO_CHARGES


@<TRIPOS>ATOM
   1 N1            -0.0161     1.3351     0.0094 N.pl3   
   2 C2             0.0021    -0.0041     0.0020 C.2     
   3 C3             1.1788    -0.7268    -0.0126 C.2     
   4 C4             2.4592    -0.0002    -0.0209 C.2     
   5 C5             2.3925     1.4727    -0.0129 C.ar    
   6 C6             3.5386     2.2673    -0.0196 C.ar    
   7 C7             3.3880     3.6394    -0.0112 C.ar    
   8 N8             2.1896     4.1939     0.0032 N.ar    
   9 C9             1.0800     3.4868     0.0100 C.ar    
  10 C10            1.1318     2.0944     0.0025 C.ar    
  11 C11            1.1533    -2.1966    -0.0193 C.2     
  12 O12            0.0903    -2.7861    -0.0120 O.2     
  13 O13            2.3088    -2.8907    -0.0336 O.3     
  14 C14           -1.3111     2.0199     0.0191 C.3     
  15 C15           -1.7486     2.2470     1.4433 C.ar    
  16 C16           -1.3887     3.4104     2.0985 C.ar    
  17 C17           -1.7881     3.6213     3.4037 C.ar    
  18 C18           -2.5521     2.6642     4.0577 C.ar    
  19 C19           -2.9123     1.4974     3.3971 C.ar    
  20 C20           -2.5139     1.2943     2.0903 C.ar    
  21 N21           -2.9586     2.8752     5.3826 N.pl3   
  22 N22           -2.6681     4.0004     6.1648 N.2     
  23 C23           -3.2172     3.8339     7.3411 C.2     
  24 C24           -3.8747     2.5988     7.3467 C.2     
  25 C25           -3.7056     2.0313     6.1299 C.2     
  26 O26            3.5255    -0.5892    -0.0334 O.2     
  27 C27            2.2077    -4.3392    -0.0395 C.3     
  28 C28            3.6112    -4.9483    -0.0557 C.3     
  29 H29           -0.9369    -0.5377     0.0081 H       
  30 H30            4.5213     1.8194    -0.0306 H       
  31 H31            4.2649     4.2699    -0.0163 H       
  32 H32            0.1236     3.9885     0.0218 H       
  33 H33           -1.2187     2.9793    -0.4899 H       
  34 H34           -2.0508     1.4058    -0.4946 H       
  35 H35           -0.7943     4.1545     1.5892 H       
  36 H36           -1.5061     4.5298     3.9151 H       
  37 H37           -3.5065     0.7510     3.9032 H       
  38 H38           -2.7969     0.3885     1.5746 H       
  39 H39           -3.1705     4.5298     8.1657 H       
  40 H40           -4.4237     2.1751     8.1745 H       
  41 H41           -4.0953     1.0751     5.8132 H       
  42 H42            1.6784    -4.6701     0.8540 H       
  43 H43            1.6614    -4.6617    -0.9258 H       
  44 H44            4.1405    -4.6174    -0.9493 H       
  45 H45            4.1575    -4.6258     0.8306 H       
  46 H46            3.5353    -6.0357    -0.0601 H       
@<TRIPOS>BOND
   1    1    2 1
   2    1   10 1
   3    1   14 1
   4    2    3 2
   5    2   29 1
   6    3    4 1
   7    3   11 1
   8    4    5 1
   9    4   26 2
  10    5    6 ar
  11    5   10 ar
  12    6    7 ar
  13    6   30 1
  14    7    8 ar
  15    7   31 1
  16    8    9 ar
  17    9   10 ar
  18    9   32 1
  19   11   12 2
  20   11   13 1
  21   13   27 1
  22   14   15 1
  23   14   33 1
  24   14   34 1
  25   15   16 ar
  26   15   20 ar
  27   16   17 ar
  28   16   35 1
  29   17   18 ar
  30   17   36 1
  31   18   19 ar
  32   18   21 1
  33   19   20 ar
  34   19   37 1
  35   20   38 1
  36   21   22 1
  37   21   25 1
  38   22   23 2
  39   23   24 1
  40   23   39 1
  41   24   25 2
  42   24   40 1
  43   25   41 1
  44   27   28 1
  45   27   42 1
  46   27   43 1
  47   28   44 1
  48   28   45 1
  49   28   46 1

#	End of record

