#	Name: ASD01911176
#	Creating user name:	WinNT
#	Creation time:	15. 06. 2019 19:57

#	Modifying user name:	WinNT
#	Modification time:	15. 06. 2019 19:57

#	Program:	/corina/corina34_cracker 3.40 0067  02.08.2006

@<TRIPOS>MOLECULE
ASD01911176
  38   41    0    0    0
SMALL
NO_CHARGES


@<TRIPOS>ATOM
   1 C1             0.5900     1.0253     0.2978 C.ar    
   2 C2             0.8182    -0.3385     0.3939 C.ar    
   3 C3             2.1087    -0.8319     0.4349 C.ar    
   4 C4             3.1926     0.0303     0.3799 C.ar    
   5 C5             2.9798     1.3961     0.2832 C.ar    
   6 C6             1.6638     1.8992     0.2419 C.ar    
   7 C7             3.8666     2.5761     0.2054 C.2     
   8 N8             3.1036     3.6811     0.1246 N.am    
   9 C9             1.7954     3.3679     0.1401 C.2     
  10 C10            3.6283     5.0458     0.0321 C.3     
  11 C11            3.9555     5.3619    -1.4046 C.ar    
  12 C12            2.9541     5.7857    -2.2683 C.ar    
  13 C13            3.2591     6.0762    -3.5919 C.ar    
  14 C14            4.5565     5.9430    -4.0455 C.ar    
  15 C15            5.5526     5.5199    -3.1826 C.ar    
  16 C16            5.2527     5.2357    -1.8620 C.ar    
  17 N17            1.6404     5.9195    -1.8062 N.am    
  18 C18            0.6137     5.8984    -2.6791 C.2     
  19 C19           -0.7623     6.1558    -2.2072 C.2     
  20 O20            0.8763     4.1595     0.0800 O.2     
  21 O21            5.0808     2.5520     0.2133 O.2     
  22 O22            0.8199     5.6674    -3.8547 O.2     
  23 Cl23           7.1825     5.3529    -3.7562 Cl      
  24 C24           -1.8849     6.1551    -3.0330 C.2     
  25 N25           -2.9779     6.4089    -2.3749 N.2     
  26 S26           -2.6201     6.6248    -0.8728 S.3     
  27 N27           -1.0778     6.4081    -0.9558 N.2     
  28 H28           -0.4205     1.4048     0.2621 H       
  29 H29           -0.0182    -1.0204     0.4375 H       
  30 H30            2.2737    -1.8966     0.5106 H       
  31 H31            4.1988    -0.3608     0.4126 H       
  32 H32            2.8794     5.7485     0.3973 H       
  33 H33            4.5310     5.1297     0.6373 H       
  34 H34            2.4821     6.4057    -4.2658 H       
  35 H35            4.7942     6.1687    -5.0745 H       
  36 H36            6.0317     4.9058    -1.1908 H       
  37 H37            1.4685     6.0274    -0.8577 H       
  38 H38           -1.8512     5.9661    -4.0959 H       
@<TRIPOS>BOND
   1    1    2 ar
   2    1    6 ar
   3    1   28 1
   4    2    3 ar
   5    2   29 1
   6    3    4 ar
   7    3   30 1
   8    4    5 ar
   9    4   31 1
  10    5    6 ar
  11    5    7 1
  12    6    9 1
  13    7    8 am
  14    7   21 2
  15    8    9 am
  16    8   10 1
  17    9   20 2
  18   10   11 1
  19   10   32 1
  20   10   33 1
  21   11   12 ar
  22   11   16 ar
  23   12   13 ar
  24   12   17 1
  25   13   14 ar
  26   13   34 1
  27   14   15 ar
  28   14   35 1
  29   15   16 ar
  30   15   23 1
  31   16   36 1
  32   17   18 am
  33   17   37 1
  34   18   19 1
  35   18   22 2
  36   19   24 1
  37   19   27 2
  38   24   25 2
  39   24   38 1
  40   25   26 1
  41   26   27 1

#	End of record

