#	Name: ASD01810305
#	Creating user name:	WinNT
#	Creation time:	15. 06. 2019 19:24

#	Modifying user name:	WinNT
#	Modification time:	15. 06. 2019 19:24

#	Program:	/corina/corina34_cracker 3.40 0067  02.08.2006

@<TRIPOS>MOLECULE
ASD01810305
  36   38    0    0    0
SMALL
NO_CHARGES


@<TRIPOS>ATOM
   1 C1            -0.0167     1.3836     0.0096 C.ar    
   2 C2             0.0021    -0.0041     0.0020 C.ar    
   3 C3             1.1956    -0.6918    -0.0130 C.ar    
   4 C4             2.3993     0.0096    -0.0207 C.ar    
   5 C5             2.3717     1.4146    -0.0129 C.ar    
   6 C6             1.1524     2.0922     0.0023 C.ar    
   7 N7             3.6017    -0.6618    -0.0353 N.pl3   
   8 C8             4.7853    -0.0310    -0.0423 C.2     
   9 C9             4.8848     1.3442    -0.0358 C.2     
  10 C10            3.6515     2.1465    -0.0212 C.2     
  11 O11            3.6864     3.3648    -0.0154 O.2     
  12 C12            6.1673     1.9812    -0.0437 C.1     
  13 C13            3.5873    -2.1267    -0.0430 C.3     
  14 C14            3.5694    -2.6214    -1.4663 C.ar    
  15 C15            4.7592    -2.8597    -2.1292 C.ar    
  16 C16            4.7455    -3.3133    -3.4340 C.ar    
  17 C17            3.5365    -3.5296    -4.0792 C.ar    
  18 C18            2.3441    -3.2897    -3.4119 C.ar    
  19 C19            2.3632    -2.8417    -2.1053 C.ar    
  20 N20            7.1847     2.4865    -0.0499 N.1     
  21 O21            3.5204    -3.9753    -5.3630 O.3     
  22 C22            2.2395    -4.1758    -5.9640 C.3     
  23 H23           -0.9613     1.9072     0.0169 H       
  24 H24           -0.9293    -0.5508     0.0083 H       
  25 H25            1.1981    -1.7717    -0.0185 H       
  26 H26            1.1321     3.1720     0.0079 H       
  27 H27            5.6906    -0.6199    -0.0530 H       
  28 H28            4.4783    -2.5015     0.4608 H       
  29 H29            2.6985    -2.4841     0.4771 H       
  30 H30            5.7001    -2.6908    -1.6266 H       
  31 H31            5.6751    -3.4989    -3.9514 H       
  32 H32            1.4017    -3.4574    -3.9121 H       
  33 H33            1.4352    -2.6548    -1.5854 H       
  34 H34            1.6807    -4.9151    -5.3903 H       
  35 H35            1.6914    -3.2337    -5.9742 H       
  36 H36            2.3695    -4.5316    -6.9861 H       
@<TRIPOS>BOND
   1    1    2 ar
   2    1    6 ar
   3    1   23 1
   4    2    3 ar
   5    2   24 1
   6    3    4 ar
   7    3   25 1
   8    4    5 ar
   9    4    7 1
  10    5    6 ar
  11    5   10 1
  12    6   26 1
  13    7    8 1
  14    7   13 1
  15    8    9 2
  16    8   27 1
  17    9   10 1
  18    9   12 1
  19   10   11 2
  20   12   20 3
  21   13   14 1
  22   13   28 1
  23   13   29 1
  24   14   15 ar
  25   14   19 ar
  26   15   16 ar
  27   15   30 1
  28   16   17 ar
  29   16   31 1
  30   17   21 1
  31   17   18 ar
  32   18   19 ar
  33   18   32 1
  34   19   33 1
  35   21   22 1
  36   22   34 1
  37   22   35 1
  38   22   36 1

#	End of record

