#	Name: ASD01200090
#	Creating user name:	WinNT
#	Creation time:	15. 06. 2019 19:08

#	Modifying user name:	WinNT
#	Modification time:	15. 06. 2019 19:08

#	Program:	/corina/corina34_cracker 3.40 0067  02.08.2006

@<TRIPOS>MOLECULE
ASD01200090
  52   54    0    0    0
SMALL
NO_CHARGES


@<TRIPOS>ATOM
   1 C1            -0.3086     1.7654     1.0759 C.2     
   2 C2            -0.2201     0.4103     0.4920 C.ar    
   3 C3             1.0218    -0.2100     0.3482 C.ar    
   4 C4             1.1003    -1.4798    -0.1989 C.ar    
   5 C5            -0.0535    -2.1354    -0.6040 C.ar    
   6 C6            -1.2902    -1.5224    -0.4634 C.ar    
   7 C7            -1.3783    -0.2545     0.0883 C.ar    
   8 O8             0.7012     2.3411     1.4317 O.2     
   9 N9            -1.5084     2.3649     1.2088 N.am    
  10 S10           -0.2581     4.5581     2.3039 S.3     
  11 C11           -1.5915     3.6382     1.7574 C.2     
  12 N12           -2.6916     4.3023     1.9294 N.2     
  13 C13           -2.5867     5.5034     2.4663 C.2     
  14 C14           -1.3387     5.8718     2.7622 C.2     
  15 C15           -3.7796     6.3875     2.7240 C.3     
  16 O16           -2.4171    -2.1685    -0.8625 O.3     
  17 C17           -2.9789    -1.8006    -2.0438 C.ar    
  18 C18           -4.1529    -2.4035    -2.4728 C.ar    
  19 C19           -4.7221    -2.0274    -3.6737 C.ar    
  20 C20           -4.1229    -1.0513    -4.4487 C.ar    
  21 C21           -2.9533    -0.4491    -4.0237 C.ar    
  22 C22           -2.3828    -0.8176    -2.8205 C.ar    
  23 S23           -4.9164    -3.6481    -1.4866 S.o2    
  24 O24           -5.0105    -3.0630    -0.1950 O.2     
  25 O25           -6.0826    -4.0063    -2.2153 O.2     
  26 C26           -3.7244    -5.0155    -1.4806 C.3     
  27 O27            2.3093    -2.0844    -0.3397 O.3     
  28 C28            2.3100    -3.4274    -0.8280 C.3     
  29 C29            2.2533    -3.4142    -2.3569 C.3     
  30 C30            3.5870    -4.1355    -0.3711 C.3     
  31 H31            1.9205     0.2997     0.6629 H       
  32 H32            0.0113    -3.1256    -1.0302 H       
  33 H33           -2.3417     0.2202     0.2019 H       
  34 H34           -2.3137     1.9071     0.9212 H       
  35 H35           -1.0428     6.8110     3.2059 H       
  36 H36           -4.1684     6.1910     3.7231 H       
  37 H37           -3.4799     7.4328     2.6498 H       
  38 H38           -4.5533     6.1781     1.9853 H       
  39 H39           -5.6358    -2.4963    -4.0080 H       
  40 H40           -4.5692    -0.7592    -5.3877 H       
  41 H41           -2.4873     0.3129    -4.6307 H       
  42 H42           -1.4715    -0.3437    -2.4868 H       
  43 H43           -2.7831    -4.6750    -1.0493 H       
  44 H44           -4.1195    -5.8393    -0.8863 H       
  45 H45           -3.5544    -5.3537    -2.5028 H       
  46 H46            1.4412    -3.9568    -0.4367 H       
  47 H47            2.2539    -4.4386    -2.7293 H       
  48 H48            1.3435    -2.9098    -2.6824 H       
  49 H49            3.1221    -2.8849    -2.7481 H       
  50 H50            3.6274    -4.1449     0.7181 H       
  51 H51            3.5876    -5.1599    -0.7436 H       
  52 H52            4.4558    -3.6062    -0.7624 H       
@<TRIPOS>BOND
   1    1    2 1
   2    1    8 2
   3    1    9 am
   4    2    3 ar
   5    2    7 ar
   6    3    4 ar
   7    3   31 1
   8    4    5 ar
   9    4   27 1
  10    5    6 ar
  11    5   32 1
  12    6    7 ar
  13    6   16 1
  14    7   33 1
  15    9   11 1
  16    9   34 1
  17   10   11 1
  18   10   14 1
  19   11   12 2
  20   12   13 1
  21   13   14 2
  22   13   15 1
  23   14   35 1
  24   15   36 1
  25   15   37 1
  26   15   38 1
  27   16   17 1
  28   17   18 ar
  29   17   22 ar
  30   18   19 ar
  31   18   23 1
  32   19   20 ar
  33   19   39 1
  34   20   21 ar
  35   20   40 1
  36   21   22 ar
  37   21   41 1
  38   22   42 1
  39   23   24 2
  40   23   25 2
  41   23   26 1
  42   26   43 1
  43   26   44 1
  44   26   45 1
  45   27   28 1
  46   28   29 1
  47   28   30 1
  48   28   46 1
  49   29   47 1
  50   29   48 1
  51   29   49 1
  52   30   50 1
  53   30   51 1
  54   30   52 1

#	End of record

