#	Name: ASD06710028
#	Creating user name:	WinNT
#	Creation time:	15. 06. 2019 21:08

#	Modifying user name:	WinNT
#	Modification time:	15. 06. 2019 21:08

#	Program:	/corina/corina34_cracker 3.40 0067  02.08.2006

@<TRIPOS>MOLECULE
ASD06710028
  86   87    0    0    0
SMALL
NO_CHARGES


@<TRIPOS>ATOM
   1 C1             0.2997     1.0478     1.2386 C.ar    
   2 C2             0.0052     0.0224     0.3519 C.ar    
   3 C3             0.9026    -0.2991    -0.6560 C.ar    
   4 C4             2.0869     0.4022    -0.7743 C.ar    
   5 C5             2.3783     1.4235     0.1110 C.ar    
   6 C6             1.4853     1.7462     1.1161 C.ar    
   7 C7             2.5185     4.1187    -1.1153 C.ar    
   8 C8             3.3762     3.6598    -0.1326 C.ar    
   9 C9             3.6714     2.1863    -0.0198 C.3     
  10 C10            2.2463     5.4689    -1.2207 C.ar    
  11 C11            2.8342     6.3648    -0.3396 C.ar    
  12 C12            3.6948     5.9019     0.6452 C.ar    
  13 C13            3.9638     4.5507     0.7465 C.ar    
  14 O14           -1.1603    -0.6664     0.4707 O.3     
  15 O15            2.5684     7.6936    -0.4415 O.3     
  16 C16           -1.3971    -1.7092    -0.4773 C.3     
  17 C17           -2.7483    -2.3655    -0.1866 C.3     
  18 C18           -2.7811    -2.8431     1.2666 C.3     
  19 O19           -3.8116    -1.4008    -0.4031 O.3     
  20 C20            3.2090     8.5575     0.4994 C.3     
  21 C21            2.7914    10.0045     0.2298 C.3     
  22 O22            1.3912    10.1498     0.4756 O.3     
  23 Cl23          -4.3126    -3.7455     1.5682 Cl      
  24 C24            3.5715    10.9411     1.1545 C.3     
  25 O25            3.2636    12.3198     0.8186 O.3     
  26 C26           -4.9994    -1.8822    -0.8021 C.2     
  27 C27           -6.1503    -0.9408    -1.0468 C.3     
  28 O28           -5.1457    -3.0705    -0.9649 O.2     
  29 C29           -7.3777    -1.7399    -1.4895 C.3     
  30 C30            3.8708    13.2735     1.5421 C.2     
  31 C31            3.6002    14.7271     1.2509 C.3     
  32 O32            4.6343    12.9665     2.4268 O.2     
  33 C33            4.4116    15.5992     2.2111 C.3     
  34 N34           -8.4996    -0.8222    -1.7280 N.3     
  35 C35           -8.2253     0.0587    -2.8712 C.3     
  36 C36           -9.7532    -1.5628    -1.9231 C.3     
  37 N37            4.1479    17.0162     1.9273 N.3     
  38 C38            4.7181    17.8773     2.9719 C.3     
  39 C39            4.6559    17.3908     0.6008 C.3     
  40 C40            4.5399     1.9332     1.2141 C.3     
  41 C41            4.4154     1.7180    -1.2720 C.3     
  42 H42           -0.3994     1.3029     2.0214 H       
  43 H43            0.6758    -1.0972    -1.3473 H       
  44 H44            2.7859     0.1524    -1.5588 H       
  45 H45            1.7152     2.5443     1.8064 H       
  46 H46            2.0645     3.4213    -1.8038 H       
  47 H47            1.5765     5.8268    -1.9886 H       
  48 H48            4.1541     6.5974     1.3321 H       
  49 H49            4.6334     4.1898     1.5133 H       
  50 H50           -1.4057    -1.2903    -1.4836 H       
  51 H51           -0.6067    -2.4558    -0.4012 H       
  52 H52           -2.8893    -3.2171    -0.8522 H       
  53 H53           -1.9304    -3.4986     1.4529 H       
  54 H54           -2.7293    -1.9823     1.9332 H       
  55 H55            2.9138     8.2764     1.5103 H       
  56 H56            4.2905     8.4666     0.3983 H       
  57 H57            3.0062    10.2572    -0.8085 H       
  58 H58            1.1273     9.9408     1.3821 H       
  59 H59            3.2895    10.7477     2.1895 H       
  60 H60            4.6403    10.7669     1.0305 H       
  61 H61           -6.3801    -0.4012    -0.1280 H       
  62 H62           -5.8787    -0.2300    -1.8273 H       
  63 H63           -7.1479    -2.2795    -2.4082 H       
  64 H64           -7.6493    -2.4507    -0.7090 H       
  65 H65            3.8887    14.9518     0.2241 H       
  66 H66            2.5379    14.9326     1.3831 H       
  67 H67            4.1231    15.3745     3.2379 H       
  68 H68            5.4739    15.3938     2.0789 H       
  69 H69           -8.0708    -0.5445    -3.7658 H       
  70 H70           -9.0718     0.7277    -3.0257 H       
  71 H71           -7.3296     0.6465    -2.6702 H       
  72 H72           -9.9683    -2.1537    -1.0328 H       
  73 H73          -10.5674    -0.8594    -2.0977 H       
  74 H74           -9.6541    -2.2247    -2.7834 H       
  75 H75            5.7964    17.7253     3.0196 H       
  76 H76            4.5084    18.9209     2.7370 H       
  77 H77            4.2727    17.6248     3.9341 H       
  78 H78            4.1653    16.7846    -0.1607 H       
  79 H79            4.4475    18.4447     0.4162 H       
  80 H80            5.7320    17.2211     0.5626 H       
  81 H81            4.0098     2.2669     2.1062 H       
  82 H82            4.7534     0.8674     1.2957 H       
  83 H83            5.4752     2.4849     1.1195 H       
  84 H84            5.3507     2.2697    -1.3666 H       
  85 H85            4.6289     0.6522    -1.1904 H       
  86 H86            3.7967     1.8983    -2.1510 H       
@<TRIPOS>BOND
   1    1    2 ar
   2    1    6 ar
   3    1   42 1
   4    2    3 ar
   5    2   14 1
   6    3    4 ar
   7    3   43 1
   8    4    5 ar
   9    4   44 1
  10    5    6 ar
  11    5    9 1
  12    6   45 1
  13    7    8 ar
  14    7   10 ar
  15    7   46 1
  16    8    9 1
  17    8   13 ar
  18    9   40 1
  19    9   41 1
  20   10   11 ar
  21   10   47 1
  22   11   12 ar
  23   11   15 1
  24   12   13 ar
  25   12   48 1
  26   13   49 1
  27   14   16 1
  28   15   20 1
  29   16   17 1
  30   16   50 1
  31   16   51 1
  32   17   18 1
  33   17   19 1
  34   17   52 1
  35   18   23 1
  36   18   53 1
  37   18   54 1
  38   19   26 1
  39   20   21 1
  40   20   55 1
  41   20   56 1
  42   21   24 1
  43   21   22 1
  44   21   57 1
  45   22   58 1
  46   24   25 1
  47   24   59 1
  48   24   60 1
  49   25   30 1
  50   26   27 1
  51   26   28 2
  52   27   29 1
  53   27   61 1
  54   27   62 1
  55   29   34 1
  56   29   63 1
  57   29   64 1
  58   30   31 1
  59   30   32 2
  60   31   33 1
  61   31   65 1
  62   31   66 1
  63   33   37 1
  64   33   67 1
  65   33   68 1
  66   34   35 1
  67   34   36 1
  68   35   69 1
  69   35   70 1
  70   35   71 1
  71   36   72 1
  72   36   73 1
  73   36   74 1
  74   37   38 1
  75   37   39 1
  76   38   75 1
  77   38   76 1
  78   38   77 1
  79   39   78 1
  80   39   79 1
  81   39   80 1
  82   40   81 1
  83   40   82 1
  84   40   83 1
  85   41   84 1
  86   41   85 1
  87   41   86 1

#	End of record

