#	Name: ASD01410385
#	Creating user name:	WinNT
#	Creation time:	15. 06. 2019 19:17

#	Modifying user name:	WinNT
#	Modification time:	15. 06. 2019 19:17

#	Program:	/corina/corina34_cracker 3.40 0067  02.08.2006

@<TRIPOS>MOLECULE
ASD01410385
  27   28    0    0    0
SMALL
NO_CHARGES


@<TRIPOS>ATOM
   1 S1             0.0615     1.7566    -0.6227 S.3     
   2 C2             0.1471     0.0035    -0.8677 C.2     
   3 N3             1.4256    -0.3516    -0.6969 N.am    
   4 C4             2.3251     0.5724    -0.4027 C.2     
   5 C5             1.7960     1.9383    -0.2927 C.2     
   6 O6             3.5017     0.3108    -0.2358 O.2     
   7 S7            -1.1576    -1.0373    -1.2492 S.2     
   8 C8             2.4762     3.0763    -0.0057 C.2     
   9 C9             1.8032     4.3791    -0.1035 C.ar    
  10 C10            2.3160     5.4885     0.5785 C.ar    
  11 C11            1.6794     6.7070     0.4820 C.ar    
  12 C12            0.5345     6.8354    -0.2878 C.ar    
  13 C13            0.0209     5.7417    -0.9659 C.ar    
  14 C14            0.6497     4.5180    -0.8838 C.ar    
  15 Cl15          -0.2607     8.3742    -0.4029 Cl      
  16 C16            1.8264    -1.7539    -0.8343 C.3     
  17 C17            2.2121    -2.0341    -2.2881 C.3     
  18 H18            3.5123     3.0248     0.2946 H       
  19 H19            3.2081     5.3898     1.1792 H       
  20 H20            2.0737     7.5639     1.0080 H       
  21 H21           -0.8721     5.8493    -1.5638 H       
  22 H22            0.2508     3.6675    -1.4165 H       
  23 H23            2.6805    -1.9528    -0.1870 H       
  24 H24            0.9956    -2.3990    -0.5481 H       
  25 H25            2.5103    -3.0775    -2.3904 H       
  26 H26            1.3579    -1.8352    -2.9354 H       
  27 H27            3.0428    -1.3890    -2.5744 H       
@<TRIPOS>BOND
   1    1    2 1
   2    1    5 1
   3    2    3 am
   4    2    7 2
   5    3    4 am
   6    3   16 1
   7    4    5 1
   8    4    6 2
   9    5    8 2
  10    8    9 1
  11    8   18 1
  12    9   10 ar
  13    9   14 ar
  14   10   11 ar
  15   10   19 1
  16   11   12 ar
  17   11   20 1
  18   12   13 ar
  19   12   15 1
  20   13   14 ar
  21   13   21 1
  22   14   22 1
  23   16   17 1
  24   16   23 1
  25   16   24 1
  26   17   25 1
  27   17   26 1
  28   17   27 1

#	End of record

