#	Name: ASD01916441
#	Creating user name:	WinNT
#	Creation time:	15. 06. 2019 20:07

#	Modifying user name:	WinNT
#	Modification time:	15. 06. 2019 20:07

#	Program:	/corina/corina34_cracker 3.40 0067  02.08.2006

@<TRIPOS>MOLECULE
ASD01916441
  21   22    0    0    0
SMALL
NO_CHARGES


@<TRIPOS>ATOM
   1 S1            -0.0218     1.7575     0.0117 S.3     
   2 C2             0.0021    -0.0041     0.0020 C.2     
   3 N3             1.2386    -0.4124    -0.0120 N.2     
   4 C4             2.1722     0.5109    -0.0159 C.2     
   5 C5             1.7405     1.7765    -0.0050 C.2     
   6 C6            -1.1904    -0.8785     0.0091 C.ar    
   7 C7            -2.4690    -0.3197     0.0243 C.ar    
   8 C8            -3.5775    -1.1411     0.0309 C.ar    
   9 C9            -3.4234    -2.5160     0.0231 C.ar    
  10 C10           -2.1585    -3.0763     0.0080 C.ar    
  11 C11           -1.0419    -2.2660    -0.0050 C.ar    
  12 C12            3.6390     0.1657    -0.0313 C.3     
  13 Br13           4.2599     0.0258    -1.8915 Br      
  14 H14            2.3642     2.6582    -0.0068 H       
  15 H15           -2.5905     0.7534     0.0312 H       
  16 H16           -4.5676    -0.7099     0.0427 H       
  17 H17           -4.2943    -3.1546     0.0290 H       
  18 H18           -2.0450    -4.1503     0.0023 H       
  19 H19           -0.0551    -2.7045    -0.0213 H       
  20 H20            4.2013     0.9459     0.4817 H       
  21 H21            3.7935    -0.7867     0.4759 H       
@<TRIPOS>BOND
   1    1    2 1
   2    1    5 1
   3    2    3 2
   4    2    6 1
   5    3    4 1
   6    4    5 2
   7    4   12 1
   8    5   14 1
   9    6    7 ar
  10    6   11 ar
  11    7    8 ar
  12    7   15 1
  13    8    9 ar
  14    8   16 1
  15    9   10 ar
  16    9   17 1
  17   10   11 ar
  18   10   18 1
  19   11   19 1
  20   12   13 1
  21   12   20 1
  22   12   21 1

#	End of record

