#	Name: ASD01410668
#	Creating user name:	WinNT
#	Creation time:	15. 06. 2019 19:18

#	Modifying user name:	WinNT
#	Modification time:	15. 06. 2019 19:18

#	Program:	/corina/corina34_cracker 3.40 0067  02.08.2006

@<TRIPOS>MOLECULE
ASD01410668
  80   84    0    0    0
SMALL
NO_CHARGES


@<TRIPOS>ATOM
   1 C1             0.9622     4.0487    -0.4842 C.ar    
   2 C2             1.5059     4.1348    -1.7583 C.ar    
   3 C3             2.6695     3.4481    -2.0441 C.ar    
   4 N4             3.2658     2.7153    -1.1233 N.ar    
   5 C5             2.7782     2.6085     0.1020 C.ar    
   6 C6             1.6115     3.2718     0.4596 C.ar    
   7 O7             3.4238     1.8435     1.0176 O.3     
   8 C8             4.5018     1.1250     0.6034 C.ar    
   9 C9             4.3200    -0.1295     0.0267 C.ar    
  10 C10            5.4097    -0.8673    -0.3974 C.ar    
  11 C11            6.6926    -0.3612    -0.2502 C.ar    
  12 C12            6.8816     0.9028     0.3304 C.ar    
  13 C13            5.7733     1.6443     0.7508 C.ar    
  14 F14            3.0728    -0.6281    -0.1185 F       
  15 N15            7.7912    -1.1057    -0.6772 N.am    
  16 C16            8.7478    -1.4609     0.2033 C.2     
  17 C17            7.9058    -1.5021    -2.0829 C.3     
  18 O18            9.7610    -2.0011    -0.1872 O.2     
  19 C19            8.5584    -1.1869     1.6730 C.3     
  20 C20            9.8623    -1.4788     2.4184 C.3     
  21 C21            9.6700    -1.2006     3.9106 C.3     
  22 C22            8.5580    -2.0979     4.4575 C.3     
  23 C23            7.2541    -1.8060     3.7121 C.3     
  24 C24            7.4464    -2.0842     2.2200 C.3     
  25 C25            8.3657    -1.8197     5.9497 C.3     
  26 C26            6.6890    -0.9918    -2.8574 C.3     
  27 C27            9.1795    -0.9005    -2.6801 C.3     
  28 C28            0.8336     4.9683    -2.8185 C.3     
  29 C29            9.1167     0.6251    -2.5839 C.3     
  30 C30            1.3736     6.3744    -2.7696 C.2     
  31 C31            6.6262     0.5338    -2.7612 C.3     
  32 C32            7.8999     1.1354    -3.3585 C.3     
  33 O33            7.8413     2.5603    -3.2686 O.3     
  34 C34            8.5455     3.2379    -4.3112 C.3     
  35 S35            0.7215     7.6409    -1.8240 S.3     
  36 C36            1.9577     8.7410    -2.4291 C.2     
  37 C37            2.7356     8.0598    -3.2757 C.2     
  38 N38            2.3984     6.7953    -3.4309 N.2     
  39 C39            1.0601     3.1477     1.8566 C.3     
  40 F40           -0.1121     3.9037     1.9642 F       
  41 F41            0.7756     1.8051     2.1280 F       
  42 F42            2.0049     3.6190     2.7744 F       
  43 C43            8.2402     1.4478     0.4905 C.2     
  44 O44            9.2066     0.7503     0.2527 O.2     
  45 O45            8.4119     2.7201     0.9007 O.3     
  46 H46            0.0556     4.5795    -0.2336 H       
  47 H47            3.0965     3.5114    -3.0341 H       
  48 H48            5.2616    -1.8395    -0.8438 H       
  49 H49            5.9117     2.6174     1.1983 H       
  50 H50            7.9505    -2.5890    -2.1514 H       
  51 H51            8.2847    -0.1414     1.8154 H       
  52 H52           10.1359    -2.5243     2.2760 H       
  53 H53           10.6545    -0.8396     2.0287 H       
  54 H54           10.5989    -1.4086     4.4416 H       
  55 H55            9.3963    -0.1552     4.0529 H       
  56 H56            8.8316    -3.1434     4.3151 H       
  57 H57            6.4619    -2.4452     4.1018 H       
  58 H58            6.9804    -0.7605     3.8545 H       
  59 H59            6.5175    -1.8762     1.6890 H       
  60 H60            7.7200    -3.1296     2.0776 H       
  61 H61            8.0920    -0.7743     6.0920 H       
  62 H62            7.5735    -2.4590     6.3393 H       
  63 H63            9.2946    -2.0277     6.4807 H       
  64 H64            6.7743    -1.2867    -3.9033 H       
  65 H65            5.7816    -1.4204    -2.4320 H       
  66 H66           10.0464    -1.2640    -2.1283 H       
  67 H67            9.2648    -1.1954    -3.7260 H       
  68 H68            1.0317     4.5370    -3.7997 H       
  69 H69           -0.2415     4.9856    -2.6396 H       
  70 H70            9.0314     0.9200    -1.5380 H       
  71 H71           10.0241     1.0537    -3.0094 H       
  72 H72            5.7593     0.8973    -3.3131 H       
  73 H73            6.5409     0.8287    -1.7153 H       
  74 H74            7.9852     0.8405    -4.4044 H       
  75 H75            9.5982     2.9568    -4.2809 H       
  76 H76            8.1225     2.9588    -5.2763 H       
  77 H77            8.4529     4.3150    -4.1717 H       
  78 H78            2.0670     9.7820    -2.1633 H       
  79 H79            3.5745     8.5078    -3.7875 H       
  80 H80            9.3224     3.0331     0.9911 H       
@<TRIPOS>BOND
   1    1    2 ar
   2    1    6 ar
   3    1   46 1
   4    2    3 ar
   5    2   28 1
   6    3    4 ar
   7    3   47 1
   8    4    5 ar
   9    5    6 ar
  10    5    7 1
  11    6   39 1
  12    7    8 1
  13    8    9 ar
  14    8   13 ar
  15    9   10 ar
  16    9   14 1
  17   10   11 ar
  18   10   48 1
  19   11   12 ar
  20   11   15 1
  21   12   13 ar
  22   12   43 1
  23   13   49 1
  24   15   16 am
  25   15   17 1
  26   16   18 2
  27   16   19 1
  28   17   26 1
  29   17   27 1
  30   17   50 1
  31   19   20 1
  32   19   24 1
  33   19   51 1
  34   20   21 1
  35   20   52 1
  36   20   53 1
  37   21   22 1
  38   21   54 1
  39   21   55 1
  40   22   23 1
  41   22   25 1
  42   22   56 1
  43   23   24 1
  44   23   57 1
  45   23   58 1
  46   24   59 1
  47   24   60 1
  48   25   61 1
  49   25   62 1
  50   25   63 1
  51   26   31 1
  52   26   64 1
  53   26   65 1
  54   27   29 1
  55   27   66 1
  56   27   67 1
  57   28   30 1
  58   28   68 1
  59   28   69 1
  60   29   32 1
  61   29   70 1
  62   29   71 1
  63   30   35 1
  64   30   38 2
  65   31   32 1
  66   31   72 1
  67   31   73 1
  68   32   33 1
  69   32   74 1
  70   33   34 1
  71   34   75 1
  72   34   76 1
  73   34   77 1
  74   35   36 1
  75   36   37 2
  76   36   78 1
  77   37   38 1
  78   37   79 1
  79   39   40 1
  80   39   41 1
  81   39   42 1
  82   43   44 2
  83   43   45 1
  84   45   80 1

#	End of record

