#	Name: ASD01914747
#	Creating user name:	WinNT
#	Creation time:	15. 06. 2019 20:04

#	Modifying user name:	WinNT
#	Modification time:	15. 06. 2019 20:04

#	Program:	/corina/corina34_cracker 3.40 0067  02.08.2006

@<TRIPOS>MOLECULE
ASD01914747
  39   42    0    0    0
SMALL
NO_CHARGES


@<TRIPOS>ATOM
   1 N1            -0.1255     1.1779     0.7127 N.am    
   2 C2            -0.0031    -0.0133     0.0376 C.2     
   3 C3            -1.1647    -0.5327    -0.6889 C.2     
   4 C4            -2.3066     0.1813    -0.6643 C.2     
   5 N5            -2.3602     1.3671     0.0319 N.am    
   6 C6            -1.2950     1.8392     0.7016 C.2     
   7 C7             1.0917     1.4295     1.2974 C.2     
   8 C8             1.9062     0.4071     0.9702 C.2     
   9 N9             1.2243    -0.4571     0.2064 N.2     
  10 C10            3.3452     0.2602     1.3929 C.3     
  11 O11           -1.3889     2.8919     1.3029 O.2     
  12 C12           -3.5552     2.0972     0.0468 C.ar    
  13 O13            3.7210     1.3778     2.2002 O.3     
  14 C14            4.9971     1.4003     2.6671 C.ar    
  15 C15            5.4294     2.4557     3.4570 C.ar    
  16 C16            5.8679     0.3651     2.3594 C.ar    
  17 C17            7.1644     0.3901     2.8357 C.ar    
  18 C18            7.5943     1.4454     3.6187 C.ar    
  19 C19            6.7269     2.4760     3.9308 C.ar    
  20 C20           -4.4986     1.8663     1.0384 C.ar    
  21 C21           -5.6779     2.5898     1.0504 C.ar    
  22 C22           -5.9162     3.5424     0.0739 C.ar    
  23 C23           -4.9772     3.7727    -0.9145 C.ar    
  24 C24           -3.7958     3.0576    -0.9274 C.ar    
  25 F25           -6.5974     2.3665     2.0147 F       
  26 H26           -1.1066    -1.4650    -1.2311 H       
  27 H27           -3.1791    -0.1763    -1.1908 H       
  28 H28            1.3478     2.2854     1.9043 H       
  29 H29            3.4633    -0.6588     1.9670 H       
  30 H30            3.9814     0.2204     0.5087 H       
  31 H31            4.7523     3.2609     3.7010 H       
  32 H32            5.5324    -0.4598     1.7484 H       
  33 H33            7.8427    -0.4156     2.5964 H       
  34 H34            8.6082     1.4630     3.9904 H       
  35 H35            7.0652     3.2994     4.5423 H       
  36 H36           -4.3126     1.1228     1.7993 H       
  37 H37           -6.8374     4.1062     0.0842 H       
  38 H38           -5.1659     4.5160    -1.6750 H       
  39 H39           -3.0630     3.2389    -1.6998 H       
@<TRIPOS>BOND
   1    1    2 1
   2    1    7 1
   3    1    6 am
   4    2    3 1
   5    2    9 2
   6    3    4 2
   7    3   26 1
   8    4    5 1
   9    4   27 1
  10    5    6 am
  11    5   12 1
  12    6   11 2
  13    7    8 2
  14    7   28 1
  15    8    9 1
  16    8   10 1
  17   10   13 1
  18   10   29 1
  19   10   30 1
  20   12   20 ar
  21   12   24 ar
  22   13   14 1
  23   14   15 ar
  24   14   16 ar
  25   15   19 ar
  26   15   31 1
  27   16   17 ar
  28   16   32 1
  29   17   18 ar
  30   17   33 1
  31   18   19 ar
  32   18   34 1
  33   19   35 1
  34   20   21 ar
  35   20   36 1
  36   21   22 ar
  37   21   25 1
  38   22   23 ar
  39   22   37 1
  40   23   24 ar
  41   23   38 1
  42   24   39 1

#	End of record

