#	Name: ASD01916612
#	Creating user name:	WinNT
#	Creation time:	15. 06. 2019 20:07

#	Modifying user name:	WinNT
#	Modification time:	15. 06. 2019 20:07

#	Program:	/corina/corina34_cracker 3.40 0067  02.08.2006

@<TRIPOS>MOLECULE
ASD01916612
  46   50    0    0    0
SMALL
NO_CHARGES


@<TRIPOS>ATOM
   1 C1            -0.0171     1.4078     0.0098 C.ar    
   2 C2             0.0021    -0.0041     0.0020 C.ar    
   3 N3            -1.1269    -0.7014     0.0055 N.ar    
   4 C4            -2.2983    -0.1117     0.0087 C.ar    
   5 C5            -2.4081     1.2893     0.0146 C.ar    
   6 C6            -1.2496     2.0678     0.0170 C.ar    
   7 N7             1.1541     2.0898     0.0023 N.2     
   8 C8             2.3021     1.4839    -0.0342 C.2     
   9 N9             2.4119     0.1211    -0.0438 N.am    
  10 C10            1.3189    -0.6668    -0.0157 C.2     
  11 C11           -3.6973     1.9128     0.0176 C.1     
  12 O12            1.4153    -1.8801    -0.0051 O.2     
  13 C13           -4.7542     2.4239     0.0201 C.1     
  14 C14           -6.0433     3.0473     0.0231 C.ar    
  15 N15           -6.1350     4.3737     0.0287 N.ar    
  16 C16           -7.3018     4.9843     0.0312 C.ar    
  17 C17           -8.4820     4.2628     0.0281 C.ar    
  18 C18           -8.4333     2.8752     0.0223 C.ar    
  19 C19           -7.1959     2.2574     0.0144 C.ar    
  20 C20            3.5788     2.2945    -0.0829 C.3     
  21 C21            4.1667     2.2136    -1.4894 C.3     
  22 C22            5.0812     1.0099    -1.6338 C.3     
  23 C23            4.3264    -0.3029    -1.4974 C.3     
  24 C24            3.7545    -0.4688    -0.0905 C.3     
  25 O25            3.2483    -0.3372    -2.4467 O.3     
  26 C26            3.4617    -1.4787    -3.2998 C.3     
  27 C27            4.3931    -2.3808    -2.4526 C.3     
  28 O28            5.2152    -1.4002    -1.7760 O.3     
  29 H29           -3.1949    -0.7138     0.0064 H       
  30 H30           -1.3035     3.1465     0.0246 H       
  31 H31           -7.3378     6.0637     0.0361 H       
  32 H32           -9.4331     4.7744     0.0306 H       
  33 H33           -9.3418     2.2912     0.0202 H       
  34 H34           -7.1216     1.1799     0.0093 H       
  35 H35            3.3604     3.3339     0.1618 H       
  36 H36            4.2938     1.8921     0.6348 H       
  37 H37            3.3546     2.1341    -2.2121 H       
  38 H38            4.7359     3.1210    -1.6914 H       
  39 H39            5.5586     1.0436    -2.6132 H       
  40 H40            5.8520     1.0567    -0.8645 H       
  41 H41            4.4000     0.0376     0.6271 H       
  42 H42            3.6954    -1.5289     0.1560 H       
  43 H43            2.5194    -1.9856    -3.5077 H       
  44 H44            3.9525    -1.1807    -4.2263 H       
  45 H45            3.8202    -2.9705    -1.7369 H       
  46 H46            4.9988    -3.0247    -3.0904 H       
@<TRIPOS>BOND
   1    1    2 ar
   2    1    7 1
   3    1    6 ar
   4    2    3 ar
   5    2   10 1
   6    3    4 ar
   7    4    5 ar
   8    4   29 1
   9    5    6 ar
  10    5   11 1
  11    6   30 1
  12    7    8 2
  13    8    9 1
  14    8   20 1
  15    9   10 am
  16    9   24 1
  17   10   12 2
  18   11   13 3
  19   13   14 1
  20   14   15 ar
  21   14   19 ar
  22   15   16 ar
  23   16   17 ar
  24   16   31 1
  25   17   18 ar
  26   17   32 1
  27   18   19 ar
  28   18   33 1
  29   19   34 1
  30   20   21 1
  31   20   35 1
  32   20   36 1
  33   21   22 1
  34   21   37 1
  35   21   38 1
  36   22   23 1
  37   22   39 1
  38   22   40 1
  39   23   24 1
  40   23   25 1
  41   23   28 1
  42   24   41 1
  43   24   42 1
  44   25   26 1
  45   26   27 1
  46   26   43 1
  47   26   44 1
  48   27   28 1
  49   27   45 1
  50   27   46 1

#	End of record

