#	Name: ASD01420109
#	Creating user name:	WinNT
#	Creation time:	15. 06. 2019 19:20

#	Modifying user name:	WinNT
#	Modification time:	15. 06. 2019 19:20

#	Program:	/corina/corina34_cracker 3.40 0067  02.08.2006

@<TRIPOS>MOLECULE
ASD01420109
  33   34    0    0    0
SMALL
NO_CHARGES


@<TRIPOS>ATOM
   1 C1            -0.0178     1.4621     0.0101 C.3     
   2 N2             0.0021    -0.0041     0.0020 N.am    
   3 C3             1.4109    -0.4106    -0.0136 C.3     
   4 C4             2.2496     0.8424    -0.0149 C.ar    
   5 C5             3.6223     1.0206    -0.0270 C.ar    
   6 C6             4.1558     2.2959    -0.0248 C.ar    
   7 C7             3.3164     3.3955    -0.0109 C.ar    
   8 C8             1.9467     3.2173     0.0008 C.ar    
   9 C9             1.4122     1.9401    -0.0010 C.ar    
  10 C10           -1.0694    -0.8216     0.0083 C.2     
  11 O11           -2.1907    -0.3535     0.0219 O.2     
  12 O12           -0.8974    -2.1569    -0.0006 O.3     
  13 Br13           6.0313     2.5372    -0.0402 Br      
  14 C14           -2.0963    -2.9760     0.0069 C.3     
  15 C15           -2.9366    -2.6615    -1.2324 C.3     
  16 C16           -1.7038    -4.4547    -0.0050 C.3     
  17 C17           -2.9119    -2.6749     1.2659 C.3     
  18 H18           -0.5370     1.8294    -0.8752 H       
  19 H19           -0.5200     1.8198     0.9090 H       
  20 H20            1.6341    -1.0037     0.8732 H       
  21 H21            1.6171    -0.9941    -0.9109 H       
  22 H22            4.2775     0.1621    -0.0379 H       
  23 H23            3.7317     4.3924    -0.0088 H       
  24 H24            1.2915     4.0758     0.0116 H       
  25 H25           -2.3556    -2.8760    -2.1294 H       
  26 H26           -3.8366    -3.2764    -1.2268 H       
  27 H27           -3.2163    -1.6080    -1.2240 H       
  28 H28           -1.1051    -4.6788     0.8779 H       
  29 H29           -2.6037    -5.0696     0.0007 H       
  30 H30           -1.1227    -4.6692    -0.9019 H       
  31 H31           -3.1915    -1.6214     1.2743 H       
  32 H32           -3.8118    -3.2898     1.2715 H       
  33 H33           -2.3132    -2.8989     2.1488 H       
@<TRIPOS>BOND
   1    1    2 1
   2    1    9 1
   3    1   18 1
   4    1   19 1
   5    2    3 1
   6    2   10 am
   7    3    4 1
   8    3   20 1
   9    3   21 1
  10    4    5 ar
  11    4    9 ar
  12    5    6 ar
  13    5   22 1
  14    6    7 ar
  15    6   13 1
  16    7    8 ar
  17    7   23 1
  18    8    9 ar
  19    8   24 1
  20   10   11 2
  21   10   12 1
  22   12   14 1
  23   14   15 1
  24   14   17 1
  25   14   16 1
  26   15   25 1
  27   15   26 1
  28   15   27 1
  29   16   28 1
  30   16   29 1
  31   16   30 1
  32   17   31 1
  33   17   32 1
  34   17   33 1

#	End of record

