#	Name: ASD03731046
#	Creating user name:	WinNT
#	Creation time:	15. 06. 2019 20:45

#	Modifying user name:	WinNT
#	Modification time:	15. 06. 2019 20:45

#	Program:	/corina/corina34_cracker 3.40 0067  02.08.2006

@<TRIPOS>MOLECULE
ASD03731046
  51   57    0    0    0
SMALL
NO_CHARGES


@<TRIPOS>ATOM
   1 O1             0.1739     1.4419    -0.6287 O.3     
   2 C2             0.2161     0.0044    -0.6993 C.3     
   3 O3             1.5293    -0.2747    -1.2191 O.3     
   4 C4             2.3058     0.7818    -0.8372 C.ar    
   5 C5             1.4719     1.8373    -0.4753 C.ar    
   6 C6             3.6794     0.9301    -0.7673 C.ar    
   7 C7             4.2379     2.1304    -0.3383 C.ar    
   8 C8             3.3948     3.1804     0.0127 C.ar    
   9 C9             2.0248     3.0335    -0.0500 C.ar    
  10 O10            5.5481     2.4755    -0.1820 O.3     
  11 C11            4.2831     4.3325     0.3996 C.3     
  12 C12            5.6588     3.9111    -0.1345 C.3     
  13 N13            3.6120     6.4746     0.8302 N.am    
  14 C14            3.8236     5.6305    -0.1994 C.2     
  15 C15            4.3047     4.5637     1.8814 C.ar    
  16 C16            4.6325     3.7760     2.9624 C.ar    
  17 C17            4.5496     4.2896     4.2443 C.ar    
  18 C18            4.1369     5.5954     4.4372 C.ar    
  19 C19            3.8066     6.3881     3.3579 C.ar    
  20 C20            3.8873     5.8796     2.0638 C.ar    
  21 O21            3.6727     5.8723    -1.3783 O.2     
  22 C22            3.1483     7.8554     0.6736 C.3     
  23 C23            4.3344     8.7650     0.4819 C.ar    
  24 C24            5.5988     8.2717     0.5863 C.ar    
  25 C25            6.7076     9.0974     0.4124 C.ar    
  26 C26            6.5587    10.4212     0.1325 C.ar    
  27 C27            5.2689    10.9664     0.0167 C.ar    
  28 C28            5.0753    12.3285    -0.2709 C.ar    
  29 C29            3.8112    12.8215    -0.3753 C.ar    
  30 C30            2.7020    11.9956    -0.2010 C.ar    
  31 C31            2.8509    10.6722     0.0789 C.ar    
  32 C32            4.1409    10.1254     0.1888 C.ar    
  33 H33            0.0963    -0.4314     0.2926 H       
  34 H34           -0.5514    -0.3683    -1.3777 H       
  35 H35            4.3226     0.1089    -1.0471 H       
  36 H36            1.3816     3.8537     0.2328 H       
  37 H37            6.4500     4.2160     0.5504 H       
  38 H38            5.8291     4.3195    -1.1307 H       
  39 H39            4.9541     2.7565     2.8093 H       
  40 H40            4.8063     3.6721     5.0924 H       
  41 H41            4.0725     5.9963     5.4380 H       
  42 H42            3.4844     7.4066     3.5168 H       
  43 H43            2.4945     7.9227    -0.1960 H       
  44 H44            2.5990     8.1575     1.5653 H       
  45 H45            5.7448     7.2248     0.8077 H       
  46 H46            7.7001     8.6809     0.5012 H       
  47 H47            7.4273    11.0492     0.0005 H       
  48 H48            5.9253    12.9805    -0.4078 H       
  49 H49            3.6652    13.8685    -0.5964 H       
  50 H50            1.7096    12.4123    -0.2890 H       
  51 H51            1.9821    10.0445     0.2121 H       
@<TRIPOS>BOND
   1    1    2 1
   2    1    5 1
   3    2    3 1
   4    2   33 1
   5    2   34 1
   6    3    4 1
   7    4    5 ar
   8    4    6 ar
   9    5    9 ar
  10    6    7 ar
  11    6   35 1
  12    7    8 ar
  13    7   10 1
  14    8    9 ar
  15    8   11 1
  16    9   36 1
  17   10   12 1
  18   11   12 1
  19   11   14 1
  20   11   15 1
  21   12   37 1
  22   12   38 1
  23   13   14 am
  24   13   20 1
  25   13   22 1
  26   14   21 2
  27   15   16 ar
  28   15   20 ar
  29   16   17 ar
  30   16   39 1
  31   17   18 ar
  32   17   40 1
  33   18   19 ar
  34   18   41 1
  35   19   20 ar
  36   19   42 1
  37   22   23 1
  38   22   43 1
  39   22   44 1
  40   23   24 ar
  41   23   32 ar
  42   24   25 ar
  43   24   45 1
  44   25   26 ar
  45   25   46 1
  46   26   27 ar
  47   26   47 1
  48   27   28 ar
  49   27   32 ar
  50   28   29 ar
  51   28   48 1
  52   29   30 ar
  53   29   49 1
  54   30   31 ar
  55   30   50 1
  56   31   32 ar
  57   31   51 1

#	End of record

