#	Name: ASD01913957
#	Creating user name:	WinNT
#	Creation time:	15. 06. 2019 20:02

#	Modifying user name:	WinNT
#	Modification time:	15. 06. 2019 20:02

#	Program:	/corina/corina34_cracker 3.40 0067  02.08.2006

@<TRIPOS>MOLECULE
ASD01913957
  43   47    0    0    0
SMALL
NO_CHARGES


@<TRIPOS>ATOM
   1 C1            -0.1681     1.6768    -0.0723 C.ar    
   2 C2            -0.1883     0.2934    -0.0870 C.ar    
   3 C3             0.9989    -0.4161    -0.0734 C.ar    
   4 C4             2.2026     0.2673    -0.0457 C.ar    
   5 C5             2.2300     1.6752    -0.0490 C.ar    
   6 C6             1.0299     2.3662    -0.0536 C.ar    
   7 C7             3.5101    -0.4123     0.0145 C.2     
   8 C8             4.6374     0.3281     0.3145 C.2     
   9 C9             4.5599     1.8028     0.5858 C.3     
  10 O10            3.4100     2.3413    -0.0737 O.3     
  11 N11            3.9094    -1.6820    -0.1664 N.pl3   
  12 N12            5.1884    -1.7641    -0.0029 N.2     
  13 C13            5.6969    -0.5761     0.2919 C.2     
  14 C14            7.1188    -0.2689     0.5479 C.2     
  15 N15            8.0409    -1.2502     0.4921 N.am    
  16 C16            9.3951    -0.9435     0.6282 C.ar    
  17 C17           10.3297    -1.9700     0.6811 C.ar    
  18 C18           11.6727    -1.6473     0.8169 C.ar    
  19 C19           12.0323    -0.3025     0.8925 C.ar    
  20 C20           11.0446     0.6638     0.8337 C.ar    
  21 N21            9.7753     0.3226     0.7000 N.ar    
  22 O22            7.4573     0.8692     0.8091 O.2     
  23 C23            3.0280    -2.8040    -0.4987 C.3     
  24 O24           12.6099    -2.6260     0.8782 O.3     
  25 C25           13.9664    -2.2306     0.6420 C.3     
  26 C26           14.2464    -0.9576     1.4518 C.3     
  27 O27           13.3370     0.0612     1.0198 O.3     
  28 H28           -1.0990     2.2243    -0.0800 H       
  29 H29           -1.1314    -0.2326    -0.1088 H       
  30 H30            0.9870    -1.4960    -0.0841 H       
  31 H31            1.0299     3.4462    -0.0431 H       
  32 H32            4.4763     1.9718     1.6593 H       
  33 H33            5.4585     2.2904     0.2080 H       
  34 H34            7.7631    -2.1697     0.3573 H       
  35 H35           10.0165    -3.0016     0.6179 H       
  36 H36           11.3140     1.7079     0.8936 H       
  37 H37            2.8577    -2.8258    -1.5751 H       
  38 H38            3.4949    -3.7379    -0.1858 H       
  39 H39            2.0756    -2.6832     0.0175 H       
  40 H40           14.6413    -3.0248     0.9611 H       
  41 H41           14.1108    -2.0297    -0.4196 H       
  42 H42           14.0971    -1.1572     2.5129 H       
  43 H43           15.2721    -0.6313     1.2798 H       
@<TRIPOS>BOND
   1    1    2 ar
   2    1    6 ar
   3    1   28 1
   4    2    3 ar
   5    2   29 1
   6    3    4 ar
   7    3   30 1
   8    4    5 ar
   9    4    7 1
  10    5    6 ar
  11    5   10 1
  12    6   31 1
  13    7    8 2
  14    7   11 1
  15    8    9 1
  16    8   13 1
  17    9   10 1
  18    9   32 1
  19    9   33 1
  20   11   12 1
  21   11   23 1
  22   12   13 2
  23   13   14 1
  24   14   15 am
  25   14   22 2
  26   15   16 1
  27   15   34 1
  28   16   17 ar
  29   16   21 ar
  30   17   18 ar
  31   17   35 1
  32   18   19 ar
  33   18   24 1
  34   19   20 ar
  35   19   27 1
  36   20   21 ar
  37   20   36 1
  38   23   37 1
  39   23   38 1
  40   23   39 1
  41   24   25 1
  42   25   26 1
  43   25   40 1
  44   25   41 1
  45   26   27 1
  46   26   42 1
  47   26   43 1

#	End of record

