#	Name: ASD06590002
#	Creating user name:	WinNT
#	Creation time:	15. 06. 2019 21:06

#	Modifying user name:	WinNT
#	Modification time:	15. 06. 2019 21:06

#	Program:	/corina/corina34_cracker 3.40 0067  02.08.2006

@<TRIPOS>MOLECULE
ASD06590002
 312  316    0    0    0
SMALL
NO_CHARGES


@<TRIPOS>ATOM
   1 C1            -8.2752     7.1098    -2.8894 C.2     
   2 O2            -8.1429     5.9043    -2.8855 O.2     
   3 N3            -5.8598     7.1744    -3.1150 N.am    
   4 C4            -7.0657     8.0002    -3.0139 C.3     
   5 C5            -7.1971     8.8666    -4.2680 C.3     
   6 C6            -6.0499     9.8420    -4.3272 C.2     
   7 C7            -5.1914     9.9926    -5.3538 C.2     
   8 N8            -4.3133    10.9791    -4.9943 N.pl3   
   9 C9            -4.6660    11.3973    -3.7596 C.2     
  10 N10           -5.7084    10.7163    -3.3691 N.2     
  11 C11          -11.8959     7.5218    -3.1781 C.2     
  12 O12          -11.7899     8.6564    -3.5932 O.2     
  13 N13           -9.5044     7.6532    -2.7879 N.am    
  14 C14          -10.6807     6.7876    -2.6730 C.3     
  15 C15          -10.8898     6.4033    -1.2069 C.3     
  16 O16          -11.2052     7.5725    -0.4483 O.3     
  17 C17          -15.5006     7.0908    -2.8533 C.2     
  18 O18          -15.4444     5.9820    -2.3651 O.2     
  19 N19          -13.1006     6.9176    -3.1685 N.am    
  20 C20          -14.2986     7.6660    -3.5571 C.3     
  21 C21          -14.4959     7.5624    -5.0708 C.3     
  22 C22          -15.6345     8.4893    -5.5013 C.3     
  23 C23          -15.2613     9.9382    -5.1813 C.3     
  24 C24          -15.8694     8.3437    -7.0062 C.3     
  25 C25          -19.0606     7.8973    -2.6552 C.2     
  26 O26          -18.9681     8.7645    -3.4979 O.2     
  27 N27          -16.6380     7.8086    -2.7663 N.am    
  28 C28          -17.8190     7.2340    -2.1172 C.3     
  29 C29          -17.7325     7.4623    -0.6068 C.3     
  30 C30          -17.6733     8.9641    -0.3206 C.3     
  31 C31          -17.7126     9.1972     1.1911 C.3     
  32 C32          -16.4719     6.7889    -0.0605 C.3     
  33 C33          -22.5856     8.0722    -1.7029 C.2     
  34 O34          -22.3845     7.5176    -0.6432 O.2     
  35 N35          -20.2738     7.5266    -2.2000 N.am    
  36 C36          -21.4808     8.1714    -2.7230 C.3     
  37 C37          -21.9139     7.4726    -4.0134 C.3     
  38 C38          -20.8618     7.6770    -5.0728 C.ar    
  39 C39          -19.8264     6.7703    -5.2025 C.ar    
  40 C40          -18.8612     6.9578    -6.1743 C.ar    
  41 C41          -18.9318     8.0516    -7.0166 C.ar    
  42 C42          -19.9677     8.9577    -6.8874 C.ar    
  43 C43          -20.9352     8.7680    -5.9185 C.ar    
  44 C44          -26.2056     8.5796    -1.6721 C.2     
  45 O45          -26.2548     8.7023    -2.8777 O.2     
  46 N46          -23.7970     8.5999    -1.9680 N.am    
  47 C47          -24.8710     8.5035    -0.9763 C.3     
  48 C48          -24.7493     9.6573     0.0211 C.3     
  49 C49          -23.4502     9.5097     0.8157 C.3     
  50 S50          -23.3059    10.8777     1.9982 S.3     
  51 C51          -21.7313    10.5333     2.8304 C.3     
  52 C52          -29.6824     9.0951    -0.6675 C.2     
  53 O53          -29.3709     9.3697     0.4720 O.2     
  54 N54          -27.3445     8.5113    -0.9547 N.am    
  55 C55          -28.6419     8.5853    -1.6311 C.3     
  56 C56          -29.0409     7.1924    -2.1226 C.3     
  57 C57          -33.3327     9.2629    -0.5674 C.2     
  58 O58          -33.4473     8.5754    -1.5599 O.2     
  59 N59          -30.9591     9.2460    -1.0721 N.am    
  60 C60          -31.9706     9.7417    -0.1354 C.3     
  61 C61          -31.9480    11.2715    -0.1229 C.3     
  62 C62          -30.6284    11.7499     0.4255 C.ar    
  63 C63          -29.5645    11.9716    -0.4288 C.ar    
  64 C64          -28.3540    12.4104     0.0742 C.ar    
  65 C65          -28.2075    12.6279     1.4314 C.ar    
  66 C66          -29.2717    12.4071     2.2856 C.ar    
  67 C67          -30.4835    11.9724     1.7821 C.ar    
  68 C68          -36.8009    10.0746     0.2548 C.2     
  69 O69          -36.4773    11.0392     0.9149 O.2     
  70 N70          -34.4236     9.5988     0.1493 N.am    
  71 C71          -35.7477     9.1334    -0.2705 C.3     
  72 C72          -35.9950     7.7297     0.2857 C.3     
  73 C73          -35.0180     6.7643    -0.3344 C.ar    
  74 C74          -33.7948     6.5364     0.2679 C.ar    
  75 C75          -32.8985     5.6509    -0.3009 C.ar    
  76 C76          -33.2257     4.9930    -1.4718 C.ar    
  77 C77          -34.4492     5.2203    -2.0737 C.ar    
  78 C78          -35.3472     6.1025    -1.5025 C.ar    
  79 C79          -40.4371    10.0267     0.6276 C.2     
  80 O80          -40.5090     8.8555     0.3209 O.2     
  81 N81          -38.1024     9.8445    -0.0090 N.am    
  82 C82          -39.1262    10.7595     0.5017 C.3     
  83 C83          -39.2891    11.9336    -0.4656 C.3     
  84 O84          -39.7971    11.4562    -1.7130 O.3     
  85 C85          -43.9404    10.9467     1.1210 C.2     
  86 O86          -43.7088    12.1282     0.9745 O.2     
  87 N87          -41.5295    10.6729     1.0810 N.am    
  88 C88          -42.8038     9.9606     1.2033 C.3     
  89 C89          -42.8550     9.2346     2.5491 C.3     
  90 C90          -41.7788     8.1476     2.5835 C.3     
  91 C91          -41.8293     7.4325     3.9091 C.2     
  92 O92          -42.6426     7.7587     4.7409 O.2     
  93 O93          -40.9707     6.4331     4.1656 O.3     
  94 C94          -47.5248    10.9114     1.8376 C.2     
  95 O95          -47.4668     9.8173     2.3576 O.2     
  96 N96          -45.2143    10.5157     1.2101 N.am    
  97 C97          -46.3192    11.4743     1.1300 C.3     
  98 C98          -46.6642    11.7334    -0.3379 C.3     
  99 C99          -45.4824    12.4195    -1.0261 C.3     
 100 C100         -45.8274    12.6787    -2.4940 C.3     
 101 C101         -44.6457    13.3647    -3.1822 C.3     
 102 N102         -44.9769    13.6135    -4.5915 N.3     
 103 C103         -51.0900    11.6995     2.0151 C.2     
 104 O104         -51.0101    12.5196     1.1252 O.2     
 105 N105         -48.6676    11.6239     1.8926 N.am    
 106 C106         -49.8396    11.0767     2.5804 C.3     
 107 C107         -49.7454    11.3888     4.0753 C.3     
 108 C108         -48.5447    10.6543     4.6750 C.3     
 109 C109         -48.4505    10.9664     6.1699 C.3     
 110 C110         -47.2497    10.2319     6.7695 C.3     
 111 N111         -47.1593    10.5316     8.2048 N.3     
 112 C112         -54.6102    11.8990     2.9803 C.2     
 113 O113         -54.3978    11.4053     4.0675 O.2     
 114 N114         -52.2972    11.3450     2.4983 N.am    
 115 C115         -53.5128    11.9504     1.9487 C.3     
 116 C116         -53.9483    11.1780     0.7018 C.3     
 117 C117         -52.9047    11.3318    -0.3744 C.ar    
 118 C118         -51.8629    10.4267    -0.4599 C.ar    
 119 C119         -50.9047    10.5658    -1.4452 C.ar    
 120 C120         -50.9886    11.6144    -2.3497 C.ar    
 121 O121         -50.0474    11.7531    -3.3202 O.3     
 122 C122         -52.0351    12.5209    -2.2620 C.ar    
 123 C123         -52.9936    12.3745    -1.2780 C.ar    
 124 C124         -57.5886    11.0159     3.6263 C.2     
 125 O125         -57.2291    10.1904     2.8206 O.2     
 126 N126         -55.8277    12.4016     2.6946 N.am    
 127 C127         -56.8945    12.3517     3.6974 C.3     
 128 C128         -57.9052    13.4669     3.4228 C.3     
 129 C129         -57.2221    14.8261     3.5866 C.3     
 130 C130         -58.1862    15.9359     3.1628 C.3     
 131 C131         -56.8274    15.0252     5.0514 C.3     
 132 O132         -58.6063    10.7433     4.4580 O.3     
 133 C133          -4.6668     7.6749    -2.7373 C.2     
 134 O134          -4.5915     8.8088    -2.3136 O.2     
 135 C135          13.8504     6.3920    -0.1568 C.3     
 136 C136          12.5910     7.2544    -0.0512 C.3     
 137 C137          11.3823     6.4540    -0.5403 C.3     
 138 C138          10.1229     7.3163    -0.4347 C.3     
 139 C139           8.9142     6.5159    -0.9238 C.3     
 140 C140           7.6548     7.3782    -0.8182 C.3     
 141 C141           6.4461     6.5778    -1.3073 C.3     
 142 C142           5.1867     7.4402    -1.2017 C.3     
 143 C143           3.9780     6.6397    -1.6908 C.3     
 144 C144           2.7186     7.5021    -1.5852 C.3     
 145 C145           1.5099     6.7016    -2.0743 C.3     
 146 C146           0.2505     7.5640    -1.9687 C.3     
 147 C147          -0.9582     6.7636    -2.4578 C.3     
 148 C148          -2.2176     7.6259    -2.3522 C.3     
 149 C149          -3.4263     6.8255    -2.8413 C.3     
 150 H150          -5.9200     6.2675    -3.4538 H       
 151 H151          -6.9944     8.6412    -2.1352 H       
 152 H152          -7.1791     8.2303    -5.1528 H       
 153 H153          -8.1387     9.4148    -4.2339 H       
 154 H154          -5.1949     9.4408    -6.2822 H       
 155 H155          -3.5755    11.3151    -5.5268 H       
 156 H156          -4.1700    12.1702    -3.1912 H       
 157 H157          -9.6102     8.6174    -2.7910 H       
 158 H158         -10.5280     5.8863    -3.2666 H       
 159 H159         -11.7099     5.6893    -1.1318 H       
 160 H160          -9.9780     5.9517    -0.8160 H       
 161 H161         -11.3512     7.4034     0.4926 H       
 162 H162         -13.1745     5.9872    -2.9042 H       
 163 H163         -14.1799     8.7127    -3.2770 H       
 164 H164         -13.5769     7.8560    -5.5780 H       
 165 H165         -14.7444     6.5346    -5.3353 H       
 166 H166         -16.5442     8.2213    -4.9640 H       
 167 H167         -16.0929    10.5934    -5.4406 H       
 168 H168         -15.0439    10.0308    -4.1172 H       
 169 H169         -14.3811    10.2225    -5.7580 H       
 170 H170         -16.1353     7.3115    -7.2342 H       
 171 H171         -16.6805     9.0040    -7.3129 H       
 172 H172         -14.9597     8.6117    -7.5435 H       
 173 H173         -16.6747     8.7057    -3.1335 H       
 174 H174         -17.8612     6.1641    -2.3211 H       
 175 H175         -18.6112     7.0348    -0.1238 H       
 176 H176         -16.7496     9.3754    -0.7277 H       
 177 H177         -18.5267     9.4567    -0.7865 H       
 178 H178         -17.6704    10.2671     1.3950 H       
 179 H179         -18.6362     8.7859     1.5982 H       
 180 H180         -16.8591     8.7046     1.6569 H       
 181 H181         -15.5933     7.2165    -0.5435 H       
 182 H182         -16.4103     6.9516     1.0155 H       
 183 H183         -16.5141     5.7190    -0.2644 H       
 184 H184         -20.3477     6.8330    -1.5260 H       
 185 H185         -21.2712     9.2207    -2.9308 H       
 186 H186         -22.0377     6.4062    -3.8251 H       
 187 H187         -22.8597     7.8935    -4.3546 H       
 188 H188         -19.7712     5.9158    -4.5445 H       
 189 H189         -18.0519     6.2498    -6.2752 H       
 190 H190         -18.1774     8.1984    -7.7753 H       
 191 H191         -20.0226     9.8125    -7.5453 H       
 192 H192         -21.7466     9.4739    -5.8200 H       
 193 H193         -23.9579     9.0435    -2.8155 H       
 194 H194         -24.7915     7.5547    -0.4457 H       
 195 H195         -24.7396    10.6044    -0.5184 H       
 196 H196         -25.5978     9.6374     0.7050 H       
 197 H197         -23.4599     8.5626     1.3551 H       
 198 H198         -22.6017     9.5296     0.1317 H       
 199 H199         -21.7840     9.5606     3.3195 H       
 200 H200         -20.9258    10.5276     2.0961 H       
 201 H201         -21.5380    11.3048     3.5758 H       
 202 H202         -27.3051     8.4131     0.0095 H       
 203 H203         -28.5703     9.2639    -2.4811 H       
 204 H204         -30.0062     7.2475    -2.6259 H       
 205 H205         -28.2883     6.8237    -2.8196 H       
 206 H206         -29.1125     6.5139    -1.2726 H       
 207 H207         -31.2082     9.0265    -1.9835 H       
 208 H208         -31.7541     9.3669     0.8649 H       
 209 H209         -32.0763    11.6451    -1.1388 H       
 210 H210         -32.7582    11.6417     0.5053 H       
 211 H211         -29.6789    11.8017    -1.4892 H       
 212 H212         -27.5226    12.5830    -0.5932 H       
 213 H213         -27.2616    12.9701     1.8245 H       
 214 H214         -29.1572    12.5767     3.3461 H       
 215 H215         -31.3160    11.8034     2.4490 H       
 216 H216         -34.3320    10.1487     0.9431 H       
 217 H217         -35.7950     9.1064    -1.3592 H       
 218 H218         -35.8602     7.7385     1.3673 H       
 219 H219         -37.0126     7.4191     0.0489 H       
 220 H220         -33.5392     7.0504     1.1827 H       
 221 H221         -31.9426     5.4734     0.1693 H       
 222 H222         -32.5252     4.3018    -1.9166 H       
 223 H223         -34.7047     4.7065    -2.9886 H       
 224 H224         -36.3046     6.2772    -1.9707 H       
 225 H225         -38.3612     9.0730    -0.5369 H       
 226 H226         -38.8238    11.1337     1.4797 H       
 227 H227         -39.9852    12.6584    -0.0433 H       
 228 H228         -38.3217    12.4096    -0.6255 H       
 229 H229         -39.9257    12.1482    -2.3761 H       
 230 H230         -41.4719    11.6097     1.3262 H       
 231 H231         -42.8933     9.2347     0.3952 H       
 232 H232         -42.6768     9.9479     3.3538 H       
 233 H233         -43.8364     8.7784     2.6787 H       
 234 H234         -41.9570     7.4343     1.7788 H       
 235 H235         -40.7974     8.6038     2.4539 H       
 236 H236         -41.0414     6.0045     5.0295 H       
 237 H237         -45.3995     9.5708     1.3273 H       
 238 H238         -46.0235    12.4100     1.6044 H       
 239 H239         -46.8738    10.7861    -0.8345 H       
 240 H240         -47.5422    12.3766    -0.3967 H       
 241 H241         -45.2728    13.3669    -0.5294 H       
 242 H242         -44.6044    11.7763    -0.9673 H       
 243 H243         -46.0371    11.7313    -2.9906 H       
 244 H244         -46.7055    13.3218    -2.5528 H       
 245 H245         -44.4360    14.3121    -2.6855 H       
 246 H246         -43.7676    12.7216    -3.1234 H       
 247 H247         -44.2116    14.0664    -5.0684 H       
 248 H248         -45.2380    12.7579    -5.0581 H       
 249 H249         -48.7139    12.4990     1.4767 H       
 250 H250         -49.8743     9.9969     2.4362 H       
 251 H251         -49.6214    12.4627     4.2152 H       
 252 H252         -50.6578    11.0605     4.5732 H       
 253 H253         -48.6687     9.5805     4.5351 H       
 254 H254         -47.6323    10.9826     4.1771 H       
 255 H255         -48.3265    12.0403     6.3098 H       
 256 H256         -49.3629    10.6381     6.6677 H       
 257 H257         -47.3737     9.1581     6.6296 H       
 258 H258         -46.3373    10.5602     6.2717 H       
 259 H259         -48.0186    10.2956     8.6783 H       
 260 H260         -46.3735    10.0578     8.6243 H       
 261 H261         -52.3612    10.6891     3.2101 H       
 262 H262         -53.3132    12.9882     1.6820 H       
 263 H263         -54.0621    10.1226     0.9495 H       
 264 H264         -54.8997    11.5719     0.3443 H       
 265 H265         -51.7981     9.6106     0.2445 H       
 266 H266         -50.0908     9.8590    -1.5112 H       
 267 H267         -50.2580    11.2883    -4.1416 H       
 268 H268         -52.1023    13.3383    -2.9647 H       
 269 H269         -53.8109    13.0774    -1.2121 H       
 270 H270         -55.9975    12.7965     1.8251 H       
 271 H271         -56.4661    12.4861     4.6907 H       
 272 H272         -58.2844    13.3712     2.4053 H       
 273 H273         -58.7329    13.3889     4.1278 H       
 274 H274         -56.3296    14.8619     2.9618 H       
 275 H275         -59.0386    15.9556     3.8418 H       
 276 H276         -57.6721    16.8965     3.1971 H       
 277 H277         -58.5347    15.7464     2.1476 H       
 278 H278         -56.1405    14.2346     5.3533 H       
 279 H279         -56.3407    15.9935     5.1681 H       
 280 H280         -57.7198    14.9895     5.6762 H       
 281 H281         -59.0202     9.8733     4.3748 H       
 282 H282          13.7324     5.4999     0.4581 H       
 283 H283          14.0044     6.0996    -1.1955 H       
 284 H284          14.7115     6.9623     0.1916 H       
 285 H285          12.4369     7.5468     0.9875 H       
 286 H286          12.7089     8.1466    -0.6662 H       
 287 H287          11.5363     6.1615    -1.5790 H       
 288 H288          11.2643     5.5618     0.0747 H       
 289 H289           9.9688     7.6088     0.6040 H       
 290 H290          10.2408     8.2085    -1.0497 H       
 291 H291           9.0682     6.2234    -1.9625 H       
 292 H292           8.7962     5.6237    -0.3088 H       
 293 H293           7.5007     7.6707     0.2205 H       
 294 H294           7.7727     8.2704    -1.4332 H       
 295 H295           6.6001     6.2854    -2.3460 H       
 296 H296           6.3281     5.6856    -0.6923 H       
 297 H297           5.0326     7.7326    -0.1630 H       
 298 H298           5.3046     8.3323    -1.8167 H       
 299 H299           4.1320     6.3473    -2.7295 H       
 300 H300           3.8600     5.7475    -1.0758 H       
 301 H301           2.5645     7.7945    -0.5465 H       
 302 H302           2.8365     8.3943    -2.2002 H       
 303 H303           1.6639     6.4092    -3.1130 H       
 304 H304           1.3920     5.8095    -1.4593 H       
 305 H305           0.0964     7.8564    -0.9300 H       
 306 H306           0.3684     8.4562    -2.5837 H       
 307 H307          -0.8042     6.4711    -3.4965 H       
 308 H308          -1.0761     5.8714    -1.8428 H       
 309 H309          -2.3717     7.9184    -1.3135 H       
 310 H310          -2.0997     8.5181    -2.9672 H       
 311 H311          -3.5442     5.9333    -2.2263 H       
 312 H312          -3.2722     6.5330    -3.8800 H       
@<TRIPOS>BOND
   1    1    2 2
   2    1    4 1
   3    1   13 am
   4    3  133 am
   5    3    4 1
   6    3  150 1
   7    4    5 1
   8    4  151 1
   9    5    6 1
  10    5  152 1
  11    5  153 1
  12    6    7 2
  13    6   10 1
  14    7    8 1
  15    7  154 1
  16    8    9 1
  17    8  155 1
  18    9   10 2
  19    9  156 1
  20   11   12 2
  21   11   14 1
  22   11   19 am
  23   13   14 1
  24   13  157 1
  25   14   15 1
  26   14  158 1
  27   15   16 1
  28   15  159 1
  29   15  160 1
  30   16  161 1
  31   17   18 2
  32   17   20 1
  33   17   27 am
  34   19   20 1
  35   19  162 1
  36   20   21 1
  37   20  163 1
  38   21   22 1
  39   21  164 1
  40   21  165 1
  41   22   23 1
  42   22   24 1
  43   22  166 1
  44   23  167 1
  45   23  168 1
  46   23  169 1
  47   24  170 1
  48   24  171 1
  49   24  172 1
  50   25   26 2
  51   25   28 1
  52   25   35 am
  53   27   28 1
  54   27  173 1
  55   28   29 1
  56   28  174 1
  57   29   30 1
  58   29   32 1
  59   29  175 1
  60   30   31 1
  61   30  176 1
  62   30  177 1
  63   31  178 1
  64   31  179 1
  65   31  180 1
  66   32  181 1
  67   32  182 1
  68   32  183 1
  69   33   34 2
  70   33   36 1
  71   33   46 am
  72   35   36 1
  73   35  184 1
  74   36   37 1
  75   36  185 1
  76   37   38 1
  77   37  186 1
  78   37  187 1
  79   38   39 ar
  80   38   43 ar
  81   39   40 ar
  82   39  188 1
  83   40   41 ar
  84   40  189 1
  85   41   42 ar
  86   41  190 1
  87   42   43 ar
  88   42  191 1
  89   43  192 1
  90   44   45 2
  91   44   47 1
  92   44   54 am
  93   46   47 1
  94   46  193 1
  95   47   48 1
  96   47  194 1
  97   48   49 1
  98   48  195 1
  99   48  196 1
 100   49   50 1
 101   49  197 1
 102   49  198 1
 103   50   51 1
 104   51  199 1
 105   51  200 1
 106   51  201 1
 107   52   53 2
 108   52   55 1
 109   52   59 am
 110   54   55 1
 111   54  202 1
 112   55   56 1
 113   55  203 1
 114   56  204 1
 115   56  205 1
 116   56  206 1
 117   57   58 2
 118   57   60 1
 119   57   70 am
 120   59   60 1
 121   59  207 1
 122   60   61 1
 123   60  208 1
 124   61   62 1
 125   61  209 1
 126   61  210 1
 127   62   63 ar
 128   62   67 ar
 129   63   64 ar
 130   63  211 1
 131   64   65 ar
 132   64  212 1
 133   65   66 ar
 134   65  213 1
 135   66   67 ar
 136   66  214 1
 137   67  215 1
 138   68   69 2
 139   68   71 1
 140   68   81 am
 141   70   71 1
 142   70  216 1
 143   71   72 1
 144   71  217 1
 145   72   73 1
 146   72  218 1
 147   72  219 1
 148   73   74 ar
 149   73   78 ar
 150   74   75 ar
 151   74  220 1
 152   75   76 ar
 153   75  221 1
 154   76   77 ar
 155   76  222 1
 156   77   78 ar
 157   77  223 1
 158   78  224 1
 159   79   80 2
 160   79   82 1
 161   79   87 am
 162   81   82 1
 163   81  225 1
 164   82   83 1
 165   82  226 1
 166   83   84 1
 167   83  227 1
 168   83  228 1
 169   84  229 1
 170   85   86 2
 171   85   88 1
 172   85   96 am
 173   87   88 1
 174   87  230 1
 175   88   89 1
 176   88  231 1
 177   89   90 1
 178   89  232 1
 179   89  233 1
 180   90   91 1
 181   90  234 1
 182   90  235 1
 183   91   92 2
 184   91   93 1
 185   93  236 1
 186   94   95 2
 187   94   97 1
 188   94  105 am
 189   96   97 1
 190   96  237 1
 191   97   98 1
 192   97  238 1
 193   98   99 1
 194   98  239 1
 195   98  240 1
 196   99  100 1
 197   99  241 1
 198   99  242 1
 199  100  101 1
 200  100  243 1
 201  100  244 1
 202  101  102 1
 203  101  245 1
 204  101  246 1
 205  102  247 1
 206  102  248 1
 207  103  104 2
 208  103  106 1
 209  103  114 am
 210  105  106 1
 211  105  249 1
 212  106  107 1
 213  106  250 1
 214  107  108 1
 215  107  251 1
 216  107  252 1
 217  108  109 1
 218  108  253 1
 219  108  254 1
 220  109  110 1
 221  109  255 1
 222  109  256 1
 223  110  111 1
 224  110  257 1
 225  110  258 1
 226  111  259 1
 227  111  260 1
 228  112  113 2
 229  112  115 1
 230  112  126 am
 231  114  115 1
 232  114  261 1
 233  115  116 1
 234  115  262 1
 235  116  117 1
 236  116  263 1
 237  116  264 1
 238  117  118 ar
 239  117  123 ar
 240  118  119 ar
 241  118  265 1
 242  119  120 ar
 243  119  266 1
 244  120  121 1
 245  120  122 ar
 246  121  267 1
 247  122  123 ar
 248  122  268 1
 249  123  269 1
 250  124  125 2
 251  124  127 1
 252  124  132 1
 253  126  127 1
 254  126  270 1
 255  127  128 1
 256  127  271 1
 257  128  129 1
 258  128  272 1
 259  128  273 1
 260  129  130 1
 261  129  131 1
 262  129  274 1
 263  130  275 1
 264  130  276 1
 265  130  277 1
 266  131  278 1
 267  131  279 1
 268  131  280 1
 269  132  281 1
 270  133  134 2
 271  133  149 1
 272  135  136 1
 273  135  282 1
 274  135  283 1
 275  135  284 1
 276  136  137 1
 277  136  285 1
 278  136  286 1
 279  137  138 1
 280  137  287 1
 281  137  288 1
 282  138  139 1
 283  138  289 1
 284  138  290 1
 285  139  140 1
 286  139  291 1
 287  139  292 1
 288  140  141 1
 289  140  293 1
 290  140  294 1
 291  141  142 1
 292  141  295 1
 293  141  296 1
 294  142  143 1
 295  142  297 1
 296  142  298 1
 297  143  144 1
 298  143  299 1
 299  143  300 1
 300  144  145 1
 301  144  301 1
 302  144  302 1
 303  145  146 1
 304  145  303 1
 305  145  304 1
 306  146  147 1
 307  146  305 1
 308  146  306 1
 309  147  148 1
 310  147  307 1
 311  147  308 1
 312  148  149 1
 313  148  309 1
 314  148  310 1
 315  149  311 1
 316  149  312 1

#	End of record

