#	Name: ASD01811287
#	Creating user name:	WinNT
#	Creation time:	15. 06. 2019 19:26

#	Modifying user name:	WinNT
#	Modification time:	15. 06. 2019 19:26

#	Program:	/corina/corina34_cracker 3.40 0067  02.08.2006

@<TRIPOS>MOLECULE
ASD01811287
  62   65    0    0    0
SMALL
NO_CHARGES


@<TRIPOS>ATOM
   1 N1             0.0385     1.1698    -0.1443 N.am    
   2 N2             0.1083    -0.1271    -0.6696 N.am    
   3 C3            -1.0163    -0.8543    -0.8207 C.2     
   4 C4            -0.9425    -2.2257    -1.3763 C.ar    
   5 C5            -2.0969    -2.9971    -1.5413 C.ar    
   6 C6            -1.9822    -4.2710    -2.0636 C.ar    
   7 N7            -0.8062    -4.7598    -2.4034 N.ar    
   8 C8             0.3062    -4.0665    -2.2643 C.ar    
   9 C9             0.2827    -2.7823    -1.7556 C.ar    
  10 O10           -2.0907    -0.3852    -0.5013 O.2     
  11 C11            1.1631     1.8971     0.0068 C.2     
  12 O12            1.1026     3.0226     0.4628 O.2     
  13 N13            2.3548     1.3768    -0.3475 N.am    
  14 C14            3.5113     2.1619    -0.2730 C.ar    
  15 C15            4.7377     1.5683     0.0016 C.ar    
  16 C16            5.8824     2.3391     0.0767 C.ar    
  17 C17            5.8155     3.7035    -0.1210 C.ar    
  18 C18            4.5888     4.3091    -0.3978 C.ar    
  19 C19            3.4343     3.5302    -0.4787 C.ar    
  20 C20            4.8194     0.0793     0.2188 C.3     
  21 C21            4.5141     5.7705    -0.6100 C.2     
  22 O22            3.5267     6.3860    -0.2584 O.2     
  23 N23            5.5409     6.4200    -1.1933 N.am    
  24 C24            5.5327     7.8849    -1.3061 C.3     
  25 C25            5.7600     8.2679    -2.7719 C.3     
  26 C26            7.0450     7.6060    -3.2746 C.3     
  27 C27            6.9043     6.0845    -3.1891 C.3     
  28 C28            6.6926     5.6772    -1.7230 C.3     
  29 C29            7.2899     8.0079    -4.7062 C.ar    
  30 C30            8.4512     8.6802    -5.0437 C.ar    
  31 C31            8.6818     9.0510    -6.3522 C.ar    
  32 C32            7.7402     8.7460    -7.3372 C.ar    
  33 C33            6.5707     8.0670    -6.9896 C.ar    
  34 C34            6.3551     7.6978    -5.6780 C.ar    
  35 C35            7.9727     9.1283    -8.6975 C.1     
  36 N36            8.1572     9.4316    -9.7766 N.1     
  37 H37           -0.8196     1.5458     0.1070 H       
  38 H38            0.9660    -0.5015    -0.9246 H       
  39 H39           -3.0636    -2.6032    -1.2644 H       
  40 H40           -2.8681    -4.8746    -2.1948 H       
  41 H41            1.2482    -4.5068    -2.5560 H       
  42 H42            1.1975    -2.2183    -1.6487 H       
  43 H43            2.4111     0.4582    -0.6541 H       
  44 H44            6.8325     1.8724     0.2911 H       
  45 H45            6.7122     4.3025    -0.0612 H       
  46 H46            2.4829     3.9927    -0.6965 H       
  47 H47            4.9976    -0.4177    -0.7348 H       
  48 H48            5.6379    -0.1437     0.9032 H       
  49 H49            3.8819    -0.2777     0.6450 H       
  50 H50            4.5698     8.2717    -0.9725 H       
  51 H51            6.3297     8.3032    -0.6914 H       
  52 H52            4.9163     7.9269    -3.3720 H       
  53 H53            5.8520     9.3508    -2.8549 H       
  54 H54            7.8845     7.9282    -2.6585 H       
  55 H55            6.0499     5.7641    -3.7853 H       
  56 H56            7.8108     5.6133    -3.5691 H       
  57 H57            7.5822     5.9191    -1.1416 H       
  58 H58            6.4952     4.6068    -1.6645 H       
  59 H59            9.1786     8.9154    -4.2808 H       
  60 H60            9.5883     9.5764    -6.6142 H       
  61 H61            5.8383     7.8280    -7.7465 H       
  62 H62            5.4529     7.1690    -5.4085 H       
@<TRIPOS>BOND
   1    1    2 1
   2    1   11 am
   3    1   37 1
   4    2    3 am
   5    2   38 1
   6    3    4 1
   7    3   10 2
   8    4    5 ar
   9    4    9 ar
  10    5    6 ar
  11    5   39 1
  12    6    7 ar
  13    6   40 1
  14    7    8 ar
  15    8    9 ar
  16    8   41 1
  17    9   42 1
  18   11   12 2
  19   11   13 am
  20   13   14 1
  21   13   43 1
  22   14   15 ar
  23   14   19 ar
  24   15   16 ar
  25   15   20 1
  26   16   17 ar
  27   16   44 1
  28   17   18 ar
  29   17   45 1
  30   18   19 ar
  31   18   21 1
  32   19   46 1
  33   20   47 1
  34   20   48 1
  35   20   49 1
  36   21   22 2
  37   21   23 am
  38   23   24 1
  39   23   28 1
  40   24   25 1
  41   24   50 1
  42   24   51 1
  43   25   26 1
  44   25   52 1
  45   25   53 1
  46   26   27 1
  47   26   29 1
  48   26   54 1
  49   27   28 1
  50   27   55 1
  51   27   56 1
  52   28   57 1
  53   28   58 1
  54   29   30 ar
  55   29   34 ar
  56   30   31 ar
  57   30   59 1
  58   31   32 ar
  59   31   60 1
  60   32   33 ar
  61   32   35 1
  62   33   34 ar
  63   33   61 1
  64   34   62 1
  65   35   36 3

#	End of record

