#	Name: ASD03910100
#	Creating user name:	WinNT
#	Creation time:	15. 06. 2019 20:47

#	Modifying user name:	WinNT
#	Modification time:	15. 06. 2019 20:47

#	Program:	/corina/corina34_cracker 3.40 0067  02.08.2006

@<TRIPOS>MOLECULE
ASD03910100
  40   41    0    0    0
SMALL
NO_CHARGES


@<TRIPOS>ATOM
   1 C1            -0.0173     1.4248     0.0099 C.3     
   2 O2             0.0021    -0.0041     0.0020 O.3     
   3 C3            -1.1961    -0.6353     0.0101 C.ar    
   4 C4            -1.2501    -2.0393     0.0030 C.ar    
   5 C5            -2.4842    -2.6837     0.0114 C.ar    
   6 C6            -3.6590    -1.9294     0.0266 C.ar    
   7 C7            -3.5918    -0.5288     0.0335 C.ar    
   8 C8            -2.3715     0.1061     0.0310 C.ar    
   9 C9            -4.9647    -2.6028     0.0350 C.2     
  10 O10           -5.9850    -1.9472     0.0483 O.2     
  11 C11           -0.0040    -2.8275    -0.0136 C.2     
  12 O12            1.0719    -2.2630    -0.0212 O.2     
  13 O13           -0.0585    -4.1738    -0.0203 O.3     
  14 O14            2.0503     1.5916    -1.2301 O.3     
  15 C15            3.3343     1.9868    -1.4011 C.ar    
  16 C16            4.0165     1.6640    -2.5863 C.ar    
  17 C17            5.3363     2.0725    -2.7575 C.ar    
  18 C18            5.9722     2.8001    -1.7497 C.ar    
  19 C19            5.2806     3.1160    -0.5714 C.ar    
  20 C20            3.9747     2.7164    -0.4065 C.ar    
  21 C21            7.3650     3.2339    -1.9234 C.2     
  22 O22            7.9170     3.8660    -1.0476 O.2     
  23 C23            3.3369     0.8948    -3.6449 C.2     
  24 O24            2.1850     0.5390    -3.4932 O.2     
  25 O25            3.9932     0.5865    -4.7806 O.3     
  26 C26            1.4181     1.9544    -0.0010 C.3     
  27 H27           -0.5445     1.7859    -0.8732 H       
  28 H28           -0.5275     1.7763     0.9067 H       
  29 H29           -2.5325    -3.7626     0.0057 H       
  30 H30           -4.5013     0.0535     0.0453 H       
  31 H31           -2.3266     1.1851     0.0412 H       
  32 H32           -5.0160    -3.6815     0.0293 H       
  33 H33            0.7846    -4.6473    -0.0312 H       
  34 H34            5.8663     1.8273    -3.6660 H       
  35 H35            5.7736     3.6788     0.2074 H       
  36 H36            3.4462     2.9670     0.5014 H       
  37 H37            7.8973     2.9901    -2.8309 H       
  38 H38            3.5061     0.0809    -5.4457 H       
  39 H39            1.4055     3.0401     0.0945 H       
  40 H40            1.9710     1.5226     0.8333 H       
@<TRIPOS>BOND
   1    1    2 1
   2    1   26 1
   3    1   27 1
   4    1   28 1
   5    2    3 1
   6    3    4 ar
   7    3    8 ar
   8    4    5 ar
   9    4   11 1
  10    5    6 ar
  11    5   29 1
  12    6    7 ar
  13    6    9 1
  14    7    8 ar
  15    7   30 1
  16    8   31 1
  17    9   10 2
  18    9   32 1
  19   11   12 2
  20   11   13 1
  21   13   33 1
  22   14   15 1
  23   14   26 1
  24   15   16 ar
  25   15   20 ar
  26   16   17 ar
  27   16   23 1
  28   17   18 ar
  29   17   34 1
  30   18   19 ar
  31   18   21 1
  32   19   20 ar
  33   19   35 1
  34   20   36 1
  35   21   22 2
  36   21   37 1
  37   23   24 2
  38   23   25 1
  39   25   38 1
  40   26   39 1
  41   26   40 1

#	End of record

