#	Name: ASD05430014
#	Creating user name:	WinNT
#	Creation time:	15. 06. 2019 20:59

#	Modifying user name:	WinNT
#	Modification time:	15. 06. 2019 20:59

#	Program:	/corina/corina34_cracker 3.40 0067  02.08.2006

@<TRIPOS>MOLECULE
ASD05430014
  61   66    0    0    0
SMALL
NO_CHARGES


@<TRIPOS>ATOM
   1 C1            -0.1028     1.1388    -0.5430 C.ar    
   2 C2            -0.0406    -0.0899     0.1136 C.ar    
   3 C3            -1.1798    -0.6259     0.7003 C.ar    
   4 C4            -2.3766     0.0537     0.6363 C.ar    
   5 C5            -2.4464     1.2867    -0.0202 C.ar    
   6 C6            -1.2985     1.8290    -0.6058 C.ar    
   7 C7            -4.9304    -0.1781    -0.2967 C.3     
   8 C8            -4.8843     1.3334    -0.1387 C.2     
   9 C9            -3.7243     2.0141    -0.0901 C.2     
  10 C10           -6.0665    -0.5182    -1.2701 C.3     
  11 C11           -7.4602    -0.0290    -0.8555 C.3     
  12 N12           -7.3688     1.3774    -0.4696 N.pl3   
  13 C13           -6.1981     2.0071    -0.0424 C.2     
  14 C14           -8.4148     2.4027    -0.4579 C.3     
  15 O15           -7.8605     3.4280     0.3927 O.3     
  16 N16           -6.4619     3.1803     0.4308 N.2     
  17 N17            1.1740    -0.7857     0.1813 N.pl3   
  18 C18            1.7496    -1.3126     1.3085 C.2     
  19 C19            2.9023    -1.8925     0.9232 C.2     
  20 N20            3.0319    -1.7272    -0.4016 N.2     
  21 C21            2.0004    -1.0705    -0.8583 C.2     
  22 C22           -8.6534     2.9354    -1.8473 C.ar    
  23 C23           -8.3302     2.1640    -2.9475 C.ar    
  24 C24           -9.2004     4.1928    -2.0202 C.ar    
  25 C25           -9.4205     4.6831    -3.2964 C.ar    
  26 C26           -9.0920     3.9137    -4.3991 C.ar    
  27 C27           -8.5486     2.6526    -4.2247 C.ar    
  28 C28           -9.7093     1.8470     0.1389 C.3     
  29 C29            3.8784    -2.6035     1.8247 C.3     
  30 O30            1.0141     1.6602    -1.1166 O.3     
  31 C31            0.8776     2.9225    -1.7725 C.3     
  32 C32           -5.7377    -0.5344    -2.7625 C.3     
  33 C33           -5.9797    -1.8490    -2.0175 C.3     
  34 F34           -9.9560     5.9119    -3.4651 F       
  35 F35           -8.2275     1.9005    -5.3000 F       
  36 H36           -1.1274    -1.5779     1.2076 H       
  37 H37           -3.2610    -0.3658     1.0928 H       
  38 H38           -1.3479     2.7810    -1.1135 H       
  39 H39           -3.9820    -0.5358    -0.6977 H       
  40 H40           -5.1216    -0.6440     0.6700 H       
  41 H41           -3.7310     3.0940    -0.1024 H       
  42 H42           -8.1488    -0.1339    -1.6940 H       
  43 H43           -7.8176    -0.6174    -0.0105 H       
  44 H44            1.3547    -1.2702     2.3128 H       
  45 H45            1.8351    -0.7941    -1.8892 H       
  46 H46           -7.9069     1.1798    -2.8112 H       
  47 H47           -9.4566     4.7930    -1.1597 H       
  48 H48           -9.2636     4.2952    -5.3948 H       
  49 H49           -9.5261     1.5188     1.1621 H       
  50 H50          -10.4730     2.6248     0.1381 H       
  51 H51          -10.0512     1.0016    -0.4582 H       
  52 H52            3.6156    -3.6597     1.8835 H       
  53 H53            4.8860    -2.5017     1.4215 H       
  54 H54            3.8397    -2.1634     2.8211 H       
  55 H55            0.1478     2.8366    -2.5775 H       
  56 H56            0.5406     3.6703    -1.0547 H       
  57 H57            1.8404     3.2233    -2.1855 H       
  58 H58           -6.5114    -0.1969    -3.4521 H       
  59 H59           -4.7135    -0.3027    -3.0547 H       
  60 H60           -5.1148    -2.4820    -1.8195 H       
  61 H61           -6.9127    -2.3761    -2.2168 H       
@<TRIPOS>BOND
   1    1    2 ar
   2    1   30 1
   3    1    6 ar
   4    2    3 ar
   5    2   17 1
   6    3    4 ar
   7    3   36 1
   8    4    5 ar
   9    4   37 1
  10    5    6 ar
  11    5    9 1
  12    6   38 1
  13    7    8 1
  14    7   10 1
  15    7   39 1
  16    7   40 1
  17    8    9 2
  18    8   13 1
  19    9   41 1
  20   10   11 1
  21   10   32 1
  22   10   33 1
  23   11   12 1
  24   11   42 1
  25   11   43 1
  26   12   13 1
  27   12   14 1
  28   13   16 2
  29   14   15 1
  30   14   22 1
  31   14   28 1
  32   15   16 1
  33   17   18 1
  34   17   21 1
  35   18   19 2
  36   18   44 1
  37   19   20 1
  38   19   29 1
  39   20   21 2
  40   21   45 1
  41   22   23 ar
  42   22   24 ar
  43   23   27 ar
  44   23   46 1
  45   24   25 ar
  46   24   47 1
  47   25   26 ar
  48   25   34 1
  49   26   27 ar
  50   26   48 1
  51   27   35 1
  52   28   49 1
  53   28   50 1
  54   28   51 1
  55   29   52 1
  56   29   53 1
  57   29   54 1
  58   30   31 1
  59   31   55 1
  60   31   56 1
  61   31   57 1
  62   32   33 1
  63   32   58 1
  64   32   59 1
  65   33   60 1
  66   33   61 1

#	End of record

