#	Name: ASD08150409
#	Creating user name:	WinNT
#	Creation time:	15. 06. 2019 21:16

#	Modifying user name:	WinNT
#	Modification time:	15. 06. 2019 21:16

#	Program:	/corina/corina34_cracker 3.40 0067  02.08.2006

@<TRIPOS>MOLECULE
ASD08150409
  43   47    0    0    0
SMALL
NO_CHARGES


@<TRIPOS>ATOM
   1 N1             0.9068     2.9499    -1.6484 N.am    
   2 C2             1.3487     2.3451    -2.7681 C.2     
   3 C3             2.5584     1.6214    -2.7704 C.2     
   4 C4             3.2982     1.5238    -1.6365 C.2     
   5 C5             2.8363     2.1589    -0.4567 C.ar    
   6 C6             3.5653     2.0892     0.7459 C.ar    
   7 N7             3.1369     2.6760     1.8328 N.ar    
   8 C8             1.9906     3.3723     1.8682 C.ar    
   9 C9             1.1926     3.4956     0.7042 C.ar    
  10 C10            1.6280     2.8719    -0.4885 C.ar    
  11 C11           -0.0009     4.2227     0.7518 C.ar    
  12 C12           -0.3910     4.8165     1.9412 C.ar    
  13 C13            0.4040     4.6902     3.0889 C.ar    
  14 C14            1.5675     3.9867     3.0583 C.ar    
  15 O15            0.6933     2.4243    -3.7932 O.2     
  16 C16           -1.6553     5.5900     2.0003 C.ar    
  17 C17           -0.2954     3.6678    -1.6735 C.ar    
  18 C18           -1.7488     6.7521     2.7707 C.ar    
  19 C19           -0.2868     5.0281    -1.9512 C.ar    
  20 C20           -1.4753     5.7350    -1.9753 C.ar    
  21 C21           -2.6740     5.0850    -1.7222 C.ar    
  22 C22           -2.6826     3.7286    -1.4452 C.ar    
  23 C23           -1.4980     3.0187    -1.4261 C.ar    
  24 F24           -3.8345     5.7763    -1.7455 F       
  25 F25           -1.4686     7.0588    -2.2449 F       
  26 N26           -2.8922     7.4137     2.7973 N.ar    
  27 C27           -3.9402     6.9885     2.1064 C.ar    
  28 N28           -3.8906     5.8912     1.3648 N.ar    
  29 C29           -2.7813     5.1782     1.2823 C.ar    
  30 N30           -5.1193     7.7102     2.1612 N.pl3   
  31 H31            2.8976     1.1427    -3.6772 H       
  32 H32            4.2253     0.9698    -1.6334 H       
  33 H33            4.4953     1.5406     0.7710 H       
  34 H34           -0.6138     4.3209    -0.1320 H       
  35 H35            0.0884     5.1580     4.0097 H       
  36 H36            2.1676     3.8996     3.9519 H       
  37 H37           -0.8989     7.1042     3.3365 H       
  38 H38            0.6470     5.5338    -2.1478 H       
  39 H39           -3.6170     3.2241    -1.2484 H       
  40 H40           -1.5060     1.9606    -1.2099 H       
  41 H41           -2.7478     4.2852     0.6759 H       
  42 H42           -5.1707     8.5152     2.6999 H       
  43 H43           -5.8946     7.4112     1.6608 H       
@<TRIPOS>BOND
   1    1    2 am
   2    1   10 1
   3    1   17 1
   4    2    3 1
   5    2   15 2
   6    3    4 2
   7    3   31 1
   8    4    5 1
   9    4   32 1
  10    5    6 ar
  11    5   10 ar
  12    6    7 ar
  13    6   33 1
  14    7    8 ar
  15    8    9 ar
  16    8   14 ar
  17    9   10 ar
  18    9   11 ar
  19   11   12 ar
  20   11   34 1
  21   12   13 ar
  22   12   16 1
  23   13   14 ar
  24   13   35 1
  25   14   36 1
  26   16   18 ar
  27   16   29 ar
  28   17   19 ar
  29   17   23 ar
  30   18   26 ar
  31   18   37 1
  32   19   20 ar
  33   19   38 1
  34   20   21 ar
  35   20   25 1
  36   21   22 ar
  37   21   24 1
  38   22   23 ar
  39   22   39 1
  40   23   40 1
  41   26   27 ar
  42   27   28 ar
  43   27   30 1
  44   28   29 ar
  45   29   41 1
  46   30   42 1
  47   30   43 1

#	End of record

