#	Name: ASD01812221
#	Creating user name:	WinNT
#	Creation time:	15. 06. 2019 19:28

#	Modifying user name:	WinNT
#	Modification time:	15. 06. 2019 19:28

#	Program:	/corina/corina34_cracker 3.40 0067  02.08.2006

@<TRIPOS>MOLECULE
ASD01812221
  54   58    0    0    0
SMALL
NO_CHARGES


@<TRIPOS>ATOM
   1 C1            -0.0330     1.3620     0.2184 C.ar    
   2 C2            -0.0039    -0.0314     0.2169 C.ar    
   3 C3             1.1910    -0.6881     0.1335 C.ar    
   4 C4             2.3677     0.0796     0.0509 C.ar    
   5 C5             2.2662     1.4943     0.0574 C.ar    
   6 N6             1.0642     2.0741     0.1413 N.ar    
   7 C7             3.6313    -0.5291    -0.0368 C.ar    
   8 C8             4.7520     0.2329    -0.1151 C.ar    
   9 C9             4.6707     1.6386    -0.1101 C.ar    
  10 C10            3.4360     2.2604    -0.0248 C.ar    
  11 C11            3.7425    -2.0320    -0.0434 C.3     
  12 C12            5.7123     2.6839    -0.1831 C.2     
  13 N13            5.1513     3.9047    -0.1446 N.am    
  14 C14            3.6960     3.7457    -0.0435 C.3     
  15 O15            6.9060     2.4704    -0.2661 O.2     
  16 C16            5.8715     5.1794    -0.1946 C.3     
  17 C17            6.6617     5.2678    -1.5018 C.3     
  18 C18            7.4138     6.5991    -1.5540 C.3     
  19 C19            8.3772     6.6875    -0.3687 C.3     
  20 C20            7.5870     6.5991     0.9384 C.3     
  21 C21            6.8349     5.2678     0.9907 C.3     
  22 N22            3.5473    -2.5434     1.3198 N.3     
  23 C23            3.2829    -3.9939     1.3072 C.3     
  24 O24            5.7619     5.1853    -2.6089 O.3     
  25 C25            4.3506    -4.6611     2.1995 C.3     
  26 C26            4.8117    -3.5005     3.1200 C.3     
  27 C27            4.7394    -2.2895     2.1567 C.3     
  28 H28           -0.9851     1.8681     0.2802 H       
  29 H29           -0.9251    -0.5914     0.2819 H       
  30 H30            1.2317    -1.7673     0.1315 H       
  31 H31            5.7182    -0.2451    -0.1818 H       
  32 H32            2.9801    -2.4499    -0.7008 H       
  33 H33            4.7302    -2.3217    -0.4022 H       
  34 H34            3.2085     4.2008    -0.9056 H       
  35 H35            3.3323     4.2014     0.8774 H       
  36 H36            5.1580     6.0020    -0.1451 H       
  37 H37            7.3752     4.4452    -1.5513 H       
  38 H38            7.9768     6.6621    -2.4853 H       
  39 H39            6.7004     7.4217    -1.5045 H       
  40 H40            9.0907     5.8649    -0.4183 H       
  41 H41            8.9131     7.6360    -0.4060 H       
  42 H42            8.2733     6.6621     1.7829 H       
  43 H43            6.8735     7.4217     0.9880 H       
  44 H44            6.2719     5.2049     1.9219 H       
  45 H45            7.5483     4.4452     0.9411 H       
  46 H46            2.2885    -4.1930     1.7069 H       
  47 H47            3.3591    -4.3758     0.2892 H       
  48 H48            6.1949     5.2347    -3.4721 H       
  49 H49            3.9125    -5.4680     2.7869 H       
  50 H50            5.1814    -5.0285     1.5971 H       
  51 H51            4.1283    -3.3729     3.9596 H       
  52 H52            5.8316    -3.6610     3.4696 H       
  53 H53            5.6351    -2.2433     1.5373 H       
  54 H54            4.6179    -1.3638     2.7193 H       
@<TRIPOS>BOND
   1    1    2 ar
   2    1    6 ar
   3    1   28 1
   4    2    3 ar
   5    2   29 1
   6    3    4 ar
   7    3   30 1
   8    4    5 ar
   9    4    7 ar
  10    5    6 ar
  11    5   10 ar
  12    7    8 ar
  13    7   11 1
  14    8    9 ar
  15    8   31 1
  16    9   10 ar
  17    9   12 1
  18   10   14 1
  19   11   22 1
  20   11   32 1
  21   11   33 1
  22   12   13 am
  23   12   15 2
  24   13   14 1
  25   13   16 1
  26   14   34 1
  27   14   35 1
  28   16   17 1
  29   16   21 1
  30   16   36 1
  31   17   18 1
  32   17   24 1
  33   17   37 1
  34   18   19 1
  35   18   38 1
  36   18   39 1
  37   19   20 1
  38   19   40 1
  39   19   41 1
  40   20   21 1
  41   20   42 1
  42   20   43 1
  43   21   44 1
  44   21   45 1
  45   22   23 1
  46   22   27 1
  47   23   25 1
  48   23   46 1
  49   23   47 1
  50   24   48 1
  51   25   26 1
  52   25   49 1
  53   25   50 1
  54   26   27 1
  55   26   51 1
  56   26   52 1
  57   27   53 1
  58   27   54 1

#	End of record

