#	Name: ASD04370047
#	Creating user name:	WinNT
#	Creation time:	15. 06. 2019 20:49

#	Modifying user name:	WinNT
#	Modification time:	15. 06. 2019 20:49

#	Program:	/corina/corina34_cracker 3.40 0067  02.08.2006

@<TRIPOS>MOLECULE
ASD04370047
  67   68    0    0    0
SMALL
NO_CHARGES


@<TRIPOS>ATOM
   1 C1            -0.6617    -0.3500    -1.3103 C.2     
   2 C2             0.0144     0.0234    -0.0163 C.3     
   3 C3             1.4090    -0.6042     0.0301 C.3     
   4 C4             1.2809    -2.1274     0.0953 C.3     
   5 O5            -0.0474    -0.9469    -2.1625 O.2     
   6 O6            -1.9479    -0.0243    -1.5139 O.3     
   7 N7             2.1218    -0.1229     1.2161 N.am    
   8 C8             2.8503     1.0092     1.1513 C.2     
   9 C9             3.6735     1.4443     2.3361 C.3     
  10 C10            4.3974     2.7502     2.0022 C.3     
  11 C11            5.2333     3.1920     3.2052 C.3     
  12 C12            5.9572     4.4979     2.8713 C.3     
  13 C13            6.7930     4.9397     4.0742 C.3     
  14 C14            7.5169     6.2456     3.7403 C.3     
  15 C15            8.3527     6.6874     4.9433 C.3     
  16 O16            2.8432     1.6777     0.1394 O.2     
  17 O17            9.0289     7.9071     4.6314 O.3     
  18 C18            9.8419     8.4091     5.6939 C.3     
  19 C19           10.5037     9.6908     5.2576 C.ar    
  20 C20           10.2766    10.1881     4.0110 C.ar    
  21 C21           10.8795    11.3716     3.5900 C.ar    
  22 C22           11.7127    12.0651     4.4132 C.ar    
  23 C23           11.9708    11.5832     5.7075 C.ar    
  24 C24           12.8256    12.2712     6.5857 C.ar    
  25 C25           13.0524    11.7740     7.8320 C.ar    
  26 C26           12.4496    10.5900     8.2531 C.ar    
  27 C27           11.6166     9.8965     7.4301 C.ar    
  28 C28           11.3536    10.3818     6.1375 C.ar    
  29 N29            2.6130    -2.7242     0.2603 N.3     
  30 C30            2.5136    -4.1582     0.5634 C.3     
  31 C31            3.4441    -2.4939    -0.9289 C.3     
  32 H32            0.1017     1.1080     0.0483 H       
  33 H33           -0.5775    -0.3440     0.8221 H       
  34 H34            1.9634    -0.3241    -0.8656 H       
  35 H35            0.6518    -2.4033     0.9416 H       
  36 H36            0.8303    -2.4939    -0.8271 H       
  37 H37           -2.3382    -0.2850    -2.3594 H       
  38 H38            2.0695    -0.6190     2.0480 H       
  39 H39            3.0204     1.6003     3.1948 H       
  40 H40            4.4064     0.6728     2.5724 H       
  41 H41            5.0505     2.5943     1.1436 H       
  42 H42            3.6646     3.5217     1.7659 H       
  43 H43            4.5802     3.3479     4.0638 H       
  44 H44            5.9661     2.4205     3.4415 H       
  45 H45            6.6103     4.3420     2.0126 H       
  46 H46            5.2243     5.2694     2.6350 H       
  47 H47            6.1399     5.0956     4.9329 H       
  48 H48            7.5258     4.1682     4.3105 H       
  49 H49            8.1700     6.0897     2.8817 H       
  50 H50            6.7841     7.0171     3.5040 H       
  51 H51            7.6996     6.8433     5.8019 H       
  52 H52            9.0856     5.9159     5.1795 H       
  53 H53            9.2197     8.6007     6.5681 H       
  54 H54           10.6056     7.6733     5.9458 H       
  55 H55            9.6196     9.6572     3.3380 H       
  56 H56           10.6830    11.7441     2.5955 H       
  57 H57           12.1732    12.9809     4.0731 H       
  58 H58           13.3003    13.1896     6.2729 H       
  59 H59           13.7097    12.3048     8.5049 H       
  60 H60           12.6468    10.2170     9.2473 H       
  61 H61           11.1572     8.9800     7.7698 H       
  62 H62            2.0011    -4.6674    -0.2528 H       
  63 H63            3.5139    -4.5750     0.6807 H       
  64 H64            1.9519    -4.2961     1.4873 H       
  65 H65            3.5588    -1.4220    -1.0899 H       
  66 H66            4.4246    -2.9460    -0.7800 H       
  67 H67            2.9653    -2.9429    -1.7992 H       
@<TRIPOS>BOND
   1    1    2 1
   2    1    5 2
   3    1    6 1
   4    2    3 1
   5    2   32 1
   6    2   33 1
   7    3    4 1
   8    3    7 1
   9    3   34 1
  10    4   29 1
  11    4   35 1
  12    4   36 1
  13    6   37 1
  14    7    8 am
  15    7   38 1
  16    8    9 1
  17    8   16 2
  18    9   10 1
  19    9   39 1
  20    9   40 1
  21   10   11 1
  22   10   41 1
  23   10   42 1
  24   11   12 1
  25   11   43 1
  26   11   44 1
  27   12   13 1
  28   12   45 1
  29   12   46 1
  30   13   14 1
  31   13   47 1
  32   13   48 1
  33   14   15 1
  34   14   49 1
  35   14   50 1
  36   15   17 1
  37   15   51 1
  38   15   52 1
  39   17   18 1
  40   18   19 1
  41   18   53 1
  42   18   54 1
  43   19   20 ar
  44   19   28 ar
  45   20   21 ar
  46   20   55 1
  47   21   22 ar
  48   21   56 1
  49   22   23 ar
  50   22   57 1
  51   23   24 ar
  52   23   28 ar
  53   24   25 ar
  54   24   58 1
  55   25   26 ar
  56   25   59 1
  57   26   27 ar
  58   26   60 1
  59   27   28 ar
  60   27   61 1
  61   29   30 1
  62   29   31 1
  63   30   62 1
  64   30   63 1
  65   30   64 1
  66   31   65 1
  67   31   66 1
  68   31   67 1

#	End of record

