#	Name: ASD01810317
#	Creating user name:	WinNT
#	Creation time:	15. 06. 2019 19:24

#	Modifying user name:	WinNT
#	Modification time:	15. 06. 2019 19:24

#	Program:	/corina/corina34_cracker 3.40 0067  02.08.2006

@<TRIPOS>MOLECULE
ASD01810317
  42   45    0    0    0
SMALL
NO_CHARGES


@<TRIPOS>ATOM
   1 N1            -0.0161     1.3349     0.0094 N.pl3   
   2 C2             0.0021    -0.0041     0.0020 C.2     
   3 C3             1.1800    -0.7235    -0.0127 C.2     
   4 C4             2.4584     0.0059    -0.0210 C.2     
   5 C5             2.3933     1.4792    -0.0130 C.ar    
   6 C6             3.5540     2.2529    -0.0195 C.ar    
   7 C7             3.4562     3.6265    -0.0112 C.ar    
   8 C8             2.2112     4.2396     0.0036 C.ar    
   9 C9             1.0568     3.4882     0.0106 C.ar    
  10 C10            1.1317     2.0975     0.0025 C.ar    
  11 O11            3.5253    -0.5826    -0.0336 O.2     
  12 C12           -1.3118     2.0184     0.0191 C.3     
  13 C13           -1.7495     2.2451     1.4433 C.ar    
  14 C14           -1.3908     3.4087     2.0985 C.ar    
  15 C15           -1.7908     3.6195     3.4036 C.ar    
  16 C16           -2.5538     2.6616     4.0576 C.ar    
  17 C17           -2.9124     1.4942     3.3971 C.ar    
  18 C18           -2.5138     1.2915     2.0903 C.ar    
  19 N19           -2.9609     2.8724     5.3822 N.am    
  20 C20           -3.6993     2.0170     6.1120 C.2     
  21 C21           -3.9107     2.6077     7.4519 C.2     
  22 C22           -3.2831     3.7957     7.4557 C.2     
  23 C23           -2.6680     3.9584     6.1199 C.2     
  24 O24           -2.0124     4.9114     5.7514 O.2     
  25 O25           -4.1207     0.9427     5.7351 O.2     
  26 C26            1.1580    -2.1931    -0.0194 C.2     
  27 O27            0.0963    -2.7852    -0.0120 O.2     
  28 O28            2.3152    -2.8845    -0.0338 O.3     
  29 H29           -0.9362    -0.5389     0.0081 H       
  30 H30            4.5237     1.7774    -0.0306 H       
  31 H31            4.3523     4.2294    -0.0158 H       
  32 H32            2.1468     5.3177     0.0099 H       
  33 H33            0.0940     3.9773     0.0228 H       
  34 H34           -1.2203     2.9779    -0.4899 H       
  35 H35           -2.0508     1.4036    -0.4946 H       
  36 H36           -0.7969     4.1534     1.5893 H       
  37 H37           -1.5100     4.5284     3.9149 H       
  38 H38           -3.5059     0.7473     3.9033 H       
  39 H39           -2.7962     0.3856     1.5745 H       
  40 H40           -4.4633     2.1687     8.2694 H       
  41 H41           -3.2339     4.4954     8.2769 H       
  42 H42            2.2501    -3.8493    -0.0378 H       
@<TRIPOS>BOND
   1    1    2 1
   2    1   10 1
   3    1   12 1
   4    2    3 2
   5    2   29 1
   6    3    4 1
   7    3   26 1
   8    4    5 1
   9    4   11 2
  10    5    6 ar
  11    5   10 ar
  12    6    7 ar
  13    6   30 1
  14    7    8 ar
  15    7   31 1
  16    8    9 ar
  17    8   32 1
  18    9   10 ar
  19    9   33 1
  20   12   13 1
  21   12   34 1
  22   12   35 1
  23   13   14 ar
  24   13   18 ar
  25   14   15 ar
  26   14   36 1
  27   15   16 ar
  28   15   37 1
  29   16   17 ar
  30   16   19 1
  31   17   18 ar
  32   17   38 1
  33   18   39 1
  34   19   20 am
  35   19   23 am
  36   20   21 1
  37   20   25 2
  38   21   22 2
  39   21   40 1
  40   22   23 1
  41   22   41 1
  42   23   24 2
  43   26   27 2
  44   26   28 1
  45   28   42 1

#	End of record

