#	Name: ASD03930102
#	Creating user name:	WinNT
#	Creation time:	15. 06. 2019 20:47

#	Modifying user name:	WinNT
#	Modification time:	15. 06. 2019 20:47

#	Program:	/corina/corina34_cracker 3.40 0067  02.08.2006

@<TRIPOS>MOLECULE
ASD03930102
  46   49    0    0    0
SMALL
NO_CHARGES


@<TRIPOS>ATOM
   1 C1             0.6147     0.0824     0.7905 C.3     
   2 O2             0.3526    -1.2536     0.3566 O.3     
   3 C3            -0.9472    -1.6530     0.3385 C.ar    
   4 C4            -1.9494    -0.7702     0.7324 C.ar    
   5 C5            -3.2712    -1.1579     0.7202 C.ar    
   6 C6            -3.6162    -2.4415     0.3119 C.ar    
   7 C7            -2.6058    -3.3369    -0.0871 C.ar    
   8 C8            -1.2682    -2.9301    -0.0759 C.ar    
   9 C9            -3.2805    -4.5813    -0.4519 C.2     
  10 C10           -4.6091    -4.3817    -0.2623 C.2     
  11 N11           -4.8218    -3.1019     0.1957 N.pl3   
  12 C12           -6.1316    -2.5272     0.5126 C.3     
  13 C13           -6.4160    -2.6990     2.0061 C.3     
  14 C14           -5.6656    -5.3848    -0.5105 C.ar    
  15 C15           -5.4413    -6.4273    -1.4127 C.ar    
  16 C16           -6.4261    -7.3615    -1.6429 C.ar    
  17 C17           -7.6476    -7.2670    -0.9760 C.ar    
  18 C18           -7.8725    -6.2262    -0.0748 C.ar    
  19 C19           -6.8869    -5.2942     0.1611 C.ar    
  20 C20           -8.7078    -8.2732    -1.2254 C.ar    
  21 C21           -9.9296    -8.1816    -0.5606 C.ar    
  22 C22          -10.9129    -9.1206    -0.7971 C.ar    
  23 C23          -10.6878   -10.1513    -1.6919 C.ar    
  24 C24           -9.4773   -10.2472    -2.3546 C.ar    
  25 C25           -8.4887    -9.3109    -2.1300 C.ar    
  26 H26            1.6877     0.2713     0.7573 H       
  27 H27            0.1016     0.7850     0.1338 H       
  28 H28            0.2548     0.2101     1.8114 H       
  29 H29           -1.6878     0.2280     1.0510 H       
  30 H30           -4.0399    -0.4646     1.0283 H       
  31 H31           -0.4899    -3.6138    -0.3812 H       
  32 H32           -2.8107    -5.4872    -0.8056 H       
  33 H33           -6.1330    -1.4663     0.2622 H       
  34 H34           -6.9019    -3.0379    -0.0650 H       
  35 H35           -7.4358    -2.3795     2.2209 H       
  36 H36           -6.2984    -3.7474     2.2801 H       
  37 H37           -5.7165    -2.0924     2.5813 H       
  38 H38           -4.4959    -6.5002    -1.9297 H       
  39 H39           -6.2529    -8.1677    -2.3404 H       
  40 H40           -8.8185    -6.1538     0.4411 H       
  41 H41           -7.0610    -4.4887     0.8591 H       
  42 H42          -10.1063    -7.3775     0.1384 H       
  43 H43          -11.8597    -9.0509    -0.2824 H       
  44 H44          -11.4600   -10.8841    -1.8736 H       
  45 H45           -9.3071   -11.0540    -3.0521 H       
  46 H46           -7.5440    -9.3868    -2.6478 H       
@<TRIPOS>BOND
   1    1    2 1
   2    1   26 1
   3    1   27 1
   4    1   28 1
   5    2    3 1
   6    3    4 ar
   7    3    8 ar
   8    4    5 ar
   9    4   29 1
  10    5    6 ar
  11    5   30 1
  12    6    7 ar
  13    6   11 1
  14    7    8 ar
  15    7    9 1
  16    8   31 1
  17    9   10 2
  18    9   32 1
  19   10   11 1
  20   10   14 1
  21   11   12 1
  22   12   13 1
  23   12   33 1
  24   12   34 1
  25   13   35 1
  26   13   36 1
  27   13   37 1
  28   14   15 ar
  29   14   19 ar
  30   15   16 ar
  31   15   38 1
  32   16   17 ar
  33   16   39 1
  34   17   18 ar
  35   17   20 1
  36   18   19 ar
  37   18   40 1
  38   19   41 1
  39   20   21 ar
  40   20   25 ar
  41   21   22 ar
  42   21   42 1
  43   22   23 ar
  44   22   43 1
  45   23   24 ar
  46   23   44 1
  47   24   25 ar
  48   24   45 1
  49   25   46 1

#	End of record

