#	Name: ASD01870565
#	Creating user name:	WinNT
#	Creation time:	15. 06. 2019 19:39

#	Modifying user name:	WinNT
#	Modification time:	15. 06. 2019 19:39

#	Program:	/corina/corina34_cracker 3.40 0067  02.08.2006

@<TRIPOS>MOLECULE
ASD01870565
  46   49    0    0    0
SMALL
NO_CHARGES


@<TRIPOS>ATOM
   1 C1            -0.0573     1.3723    -0.0041 C.ar    
   2 C2            -0.0428    -0.0049    -0.0130 C.ar    
   3 C3             1.1695    -0.6735    -0.0339 C.ar    
   4 C4             2.3553     0.0373    -0.0454 C.ar    
   5 C5             2.3369     1.4218    -0.0358 C.ar    
   6 C6             1.1292     2.0835    -0.0156 C.ar    
   7 C7            -1.3494     2.1528     0.0246 C.3     
   8 C8             1.0494     3.5913    -0.0035 C.3     
   9 C9            -1.4913     2.8053     1.3759 C.2     
  10 C10            0.5619     4.0396     1.3504 C.2     
  11 N11           -0.6314     3.7165     1.8275 N.am    
  12 C12           -1.0451     4.4328     2.9614 C.ar    
  13 C13           -0.7432     3.9581     4.2305 C.ar    
  14 C14           -1.1498     4.6621     5.3460 C.ar    
  15 C15           -1.8609     5.8465     5.1992 C.ar    
  16 C16           -2.1628     6.3222     3.9299 C.ar    
  17 C17           -1.7516     5.6199     2.8135 C.ar    
  18 N18           -2.2733     6.5598     6.3302 N.am    
  19 C19           -2.3040     7.9070     6.3032 C.2     
  20 C20           -2.8458     8.6510     7.4445 C.2     
  21 O21           -1.8819     8.5059     5.3313 O.2     
  22 O22           -3.3377     8.1134     8.5800 O.3     
  23 C23           -2.9356    10.0099     7.5470 C.2     
  24 C24           -3.5119    10.2830     8.7974 C.2     
  25 C25           -3.7422     9.0943     9.3974 C.2     
  26 C26           -2.4999    11.0203     6.5173 C.3     
  27 O27           -2.4256     2.4876     2.0801 O.2     
  28 O28            1.2936     4.7215     2.0356 O.2     
  29 Cl29          -2.1234     6.2170     1.2264 Cl      
  30 H30           -0.9697    -0.5590    -0.0034 H       
  31 H31            1.1889    -1.7533    -0.0409 H       
  32 H32            3.2984    -0.4887    -0.0616 H       
  33 H33            3.2624     1.9784    -0.0442 H       
  34 H34           -1.3312     2.9186    -0.7509 H       
  35 H35           -2.1881     1.4776    -0.1451 H       
  36 H36            2.0372     4.0111    -0.1937 H       
  37 H37            0.3532     3.9267    -0.7721 H       
  38 H38           -0.1904     3.0374     4.3451 H       
  39 H39           -0.9153     4.2920     6.3331 H       
  40 H40           -2.7159     7.2428     3.8155 H       
  41 H41           -2.5372     6.0847     7.1337 H       
  42 H42           -3.7274    11.2597     9.2048 H       
  43 H43           -4.1787     8.9578    10.3758 H       
  44 H44           -3.3300    11.2341     5.8441 H       
  45 H45           -2.1916    11.9386     7.0171 H       
  46 H46           -1.6629    10.6190     5.9460 H       
@<TRIPOS>BOND
   1    1    2 ar
   2    1    6 ar
   3    1    7 1
   4    2    3 ar
   5    2   30 1
   6    3    4 ar
   7    3   31 1
   8    4    5 ar
   9    4   32 1
  10    5    6 ar
  11    5   33 1
  12    6    8 1
  13    7    9 1
  14    7   34 1
  15    7   35 1
  16    8   10 1
  17    8   36 1
  18    8   37 1
  19    9   11 am
  20    9   27 2
  21   10   28 2
  22   10   11 am
  23   11   12 1
  24   12   13 ar
  25   12   17 ar
  26   13   14 ar
  27   13   38 1
  28   14   15 ar
  29   14   39 1
  30   15   16 ar
  31   15   18 1
  32   16   17 ar
  33   16   40 1
  34   17   29 1
  35   18   19 am
  36   18   41 1
  37   19   20 1
  38   19   21 2
  39   20   23 2
  40   20   22 1
  41   22   25 1
  42   23   24 1
  43   23   26 1
  44   24   25 2
  45   24   42 1
  46   25   43 1
  47   26   44 1
  48   26   45 1
  49   26   46 1

#	End of record

