#	Name: ASD01900869
#	Creating user name:	WinNT
#	Creation time:	15. 06. 2019 19:52

#	Modifying user name:	WinNT
#	Modification time:	15. 06. 2019 19:52

#	Program:	/corina/corina34_cracker 3.40 0067  02.08.2006

@<TRIPOS>MOLECULE
ASD01900869
  61   65    0    0    0
SMALL
NO_CHARGES


@<TRIPOS>ATOM
   1 C1             0.3253     1.0221     0.4741 C.ar    
   2 C2             0.2454    -0.3510     0.3762 C.ar    
   3 C3             1.3423    -1.0915    -0.0399 C.ar    
   4 C4             2.5341    -0.4651    -0.3555 C.ar    
   5 C5             2.6319     0.9120    -0.2562 C.ar    
   6 C6             1.5173     1.6667     0.1512 C.ar    
   7 N7             3.8144     1.5846    -0.5438 N.pl3   
   8 C8             3.7418     2.9662    -1.0322 C.3     
   9 N9             2.7545     3.7248    -0.2633 N.am    
  10 C10            1.6512     3.1312     0.2337 C.2     
  11 C11            2.9599     5.0919    -0.0394 C.ar    
  12 C12            2.2589     6.0309    -0.7844 C.ar    
  13 C13            2.4616     7.3786    -0.5628 C.ar    
  14 C14            3.3654     7.7947     0.4039 C.ar    
  15 C15            4.0665     6.8572     1.1483 C.ar    
  16 C16            3.8606     5.5091     0.9317 C.ar    
  17 O17            3.5645     9.1220     0.6216 O.3     
  18 O18            0.7733     3.7993     0.7457 O.2     
  19 Br19           1.2069    -2.9727    -0.1761 Br      
  20 C20            4.4779     9.4791     1.6610 C.3     
  21 C21            5.1162     3.6263    -0.8873 C.3     
  22 C22            3.3424     2.9601    -2.5105 C.3     
  23 C23            3.3337     4.3973    -3.0365 C.3     
  24 N24            4.6682     4.9878    -2.8735 N.3     
  25 C25            5.0557     5.0450    -1.4584 C.3     
  26 C26            4.7340     6.3189    -3.4916 C.3     
  27 C27            6.0355     6.9814    -3.1202 C.ar    
  28 C28            6.0431     8.2924    -2.6823 C.ar    
  29 C29            7.2366     8.9018    -2.3417 C.ar    
  30 C30            8.4233     8.2006    -2.4386 C.ar    
  31 C31            8.4169     6.8869    -2.8767 C.ar    
  32 C32            7.2207     6.2761    -3.2122 C.ar    
  33 F33            5.7413     8.9519     1.3731 F       
  34 F34            4.5630    10.8728     1.7485 F       
  35 F35            4.0234     8.9623     2.8790 F       
  36 F36            9.5765     6.2004    -2.9720 F       
  37 C37            4.6484     6.1796    -5.0128 C.3     
  38 F38            3.3900     5.6804    -5.3654 F       
  39 F39            4.8365     7.4321    -5.6071 F       
  40 F40            5.6406     5.2989    -5.4570 F       
  41 H41           -0.5325     1.5947     0.7948 H       
  42 H42           -0.6774    -0.8536     0.6255 H       
  43 H43            3.3846    -1.0477    -0.6775 H       
  44 H44            4.6723     1.1479    -0.4240 H       
  45 H45            1.5555     5.7071    -1.5373 H       
  46 H46            1.9167     8.1091    -1.1424 H       
  47 H47            4.7702     7.1819     1.9005 H       
  48 H48            4.4029     4.7794     1.5146 H       
  49 H49            5.3902     3.6694     0.1668 H       
  50 H50            5.8588     3.0451    -1.4340 H       
  51 H51            4.0602     2.3687    -3.0790 H       
  52 H52            2.3477     2.5274    -2.6171 H       
  53 H53            3.0638     4.3959    -4.0926 H       
  54 H54            2.6059     4.9845    -2.4766 H       
  55 H55            4.3209     5.6287    -0.9039 H       
  56 H56            6.0352     5.5148    -1.3687 H       
  57 H57            3.9022     6.9265    -3.1350 H       
  58 H58            5.1161     8.8414    -2.6066 H       
  59 H59            7.2414     9.9263    -2.0000 H       
  60 H60            9.3555     8.6770    -2.1731 H       
  61 H61            7.2140     5.2503    -3.5501 H       
@<TRIPOS>BOND
   1    1    2 ar
   2    1    6 ar
   3    1   41 1
   4    2    3 ar
   5    2   42 1
   6    3    4 ar
   7    3   19 1
   8    4    5 ar
   9    4   43 1
  10    5    7 1
  11    5    6 ar
  12    6   10 1
  13    7    8 1
  14    7   44 1
  15    8    9 1
  16    8   22 1
  17    8   21 1
  18    9   10 am
  19    9   11 1
  20   10   18 2
  21   11   12 ar
  22   11   16 ar
  23   12   13 ar
  24   12   45 1
  25   13   14 ar
  26   13   46 1
  27   14   15 ar
  28   14   17 1
  29   15   16 ar
  30   15   47 1
  31   16   48 1
  32   17   20 1
  33   20   33 1
  34   20   34 1
  35   20   35 1
  36   21   25 1
  37   21   49 1
  38   21   50 1
  39   22   23 1
  40   22   51 1
  41   22   52 1
  42   23   24 1
  43   23   53 1
  44   23   54 1
  45   24   25 1
  46   24   26 1
  47   25   55 1
  48   25   56 1
  49   26   27 1
  50   26   37 1
  51   26   57 1
  52   27   28 ar
  53   27   32 ar
  54   28   29 ar
  55   28   58 1
  56   29   30 ar
  57   29   59 1
  58   30   31 ar
  59   30   60 1
  60   31   32 ar
  61   31   36 1
  62   32   61 1
  63   37   38 1
  64   37   39 1
  65   37   40 1

#	End of record

