#	Name: ASD02038682
#	Creating user name:	WinNT
#	Creation time:	15. 06. 2019 20:17

#	Modifying user name:	WinNT
#	Modification time:	15. 06. 2019 20:17

#	Program:	/corina/corina34_cracker 3.40 0067  02.08.2006

@<TRIPOS>MOLECULE
ASD02038682
  59   59    0    0    0
SMALL
NO_CHARGES


@<TRIPOS>ATOM
   1 C1            -0.0167     1.3781     0.0096 C.ar    
   2 C2             0.0021    -0.0041     0.0020 C.ar    
   3 C3             1.2084    -0.6789    -0.0132 C.ar    
   4 C4             1.2289    -2.1857    -0.0210 C.3     
   5 C5             1.2217    -2.6884    -1.4660 C.3     
   6 C6             1.2421    -4.1952    -1.4738 C.2     
   7 N7             1.2399    -4.8632    -2.6444 N.am    
   8 N8             1.2589    -6.2640    -2.6516 N.am    
   9 C9             0.1378    -6.9517    -2.9463 C.2     
  10 C10           -2.2321    -7.2065    -3.5587 C.ar    
  11 C11            1.1709     2.0855     0.0021 C.ar    
  12 C12            2.3773     1.4107    -0.0131 C.ar    
  13 C13            2.3960     0.0285    -0.0217 C.ar    
  14 C14           -1.1362    -6.2137    -3.2679 C.3     
  15 O15            1.2606    -4.8069    -0.4267 O.2     
  16 C16            2.4973    -6.9814    -2.3390 C.3     
  17 C17            2.5108    -7.3528    -0.8548 C.3     
  18 C18            3.8042    -8.1020    -0.5282 C.3     
  19 C19            3.8176    -8.4734     0.9559 C.3     
  20 O20            0.1542    -8.1643    -2.9525 O.2     
  21 C21           -3.0331    -7.6717    -2.5322 C.ar    
  22 C22           -4.0385    -8.5821    -2.7975 C.ar    
  23 C23           -4.2438    -9.0286    -4.0908 C.ar    
  24 C24           -3.4417    -8.5628    -5.1186 C.ar    
  25 C25           -2.4394    -7.6471    -4.8521 C.ar    
  26 Cl26          -3.6980    -9.1219    -6.7419 Cl      
  27 Cl27          -5.5061   -10.1726    -4.4245 Cl      
  28 C28            1.1505     3.5924     0.0099 C.3     
  29 H29           -0.9592     1.9054     0.0170 H       
  30 H30           -0.9258    -0.5567     0.0083 H       
  31 H31            2.1287    -2.5395     0.4823 H       
  32 H32            0.3490    -2.5637     0.4996 H       
  33 H33            0.3219    -2.3346    -1.9693 H       
  34 H34            2.1016    -2.3104    -1.9866 H       
  35 H35            1.2251    -4.3740    -3.4819 H       
  36 H36            3.3051     1.9634    -0.0197 H       
  37 H37            3.3385    -0.4987    -0.0332 H       
  38 H38           -1.4225    -5.5953    -2.4172 H       
  39 H39           -0.9787    -5.5803    -4.1409 H       
  40 H40            2.5538    -7.8883    -2.9410 H       
  41 H41            3.3528    -6.3437    -2.5617 H       
  42 H42            2.4543    -6.4459    -0.2528 H       
  43 H43            1.6553    -7.9906    -0.6321 H       
  44 H44            3.8606    -9.0090    -1.1303 H       
  45 H45            4.6596    -7.4643    -0.7510 H       
  46 H46            3.7612    -7.5665     1.5579 H       
  47 H47            2.9622    -9.1112     1.1786 H       
  48 H48            4.7391    -9.0072     1.1886 H       
  49 H49           -2.8729    -7.3236    -1.5224 H       
  50 H50           -4.6636    -8.9454    -1.9952 H       
  51 H51           -1.8136    -7.2830    -5.6534 H       
  52 H52            1.1552     3.9505     1.0394 H       
  53 H53            2.0306     3.9704    -0.5103 H       
  54 H54            0.2509     3.9462    -0.4937 H       
  55 S55           12.0465    10.6302     6.5671 S.3     
  56 O56           12.0690     8.9704     6.5579 O.2     
  57 O57           13.4726    11.4797     6.5580 O.2     
  58 N58           10.5725    11.4547     6.5785 N.2     
  59 H59            9.7391    10.9584     6.5798 H       
@<TRIPOS>BOND
   1    1    2 ar
   2    1   11 ar
   3    1   29 1
   4    2    3 ar
   5    2   30 1
   6    3    4 1
   7    3   13 ar
   8    4    5 1
   9    4   31 1
  10    4   32 1
  11    5    6 1
  12    5   33 1
  13    5   34 1
  14    6    7 am
  15    6   15 2
  16    7    8 1
  17    7   35 1
  18    8    9 am
  19    8   16 1
  20    9   14 1
  21    9   20 2
  22   10   21 ar
  23   10   14 1
  24   10   25 ar
  25   11   12 ar
  26   11   28 1
  27   12   13 ar
  28   12   36 1
  29   13   37 1
  30   14   38 1
  31   14   39 1
  32   16   17 1
  33   16   40 1
  34   16   41 1
  35   17   18 1
  36   17   42 1
  37   17   43 1
  38   18   19 1
  39   18   44 1
  40   18   45 1
  41   19   46 1
  42   19   47 1
  43   19   48 1
  44   21   22 ar
  45   21   49 1
  46   22   23 ar
  47   22   50 1
  48   23   24 ar
  49   23   27 1
  50   24   25 ar
  51   24   26 1
  52   25   51 1
  53   28   52 1
  54   28   53 1
  55   28   54 1
  56   55   56 2
  57   55   57 2
  58   55   58 2
  59   58   59 1

#	End of record

