#	Name: ASD02030572
#	Creating user name:	WinNT
#	Creation time:	15. 06. 2019 20:15

#	Modifying user name:	WinNT
#	Modification time:	15. 06. 2019 20:15

#	Program:	/corina/corina34_cracker 3.40 0067  02.08.2006

@<TRIPOS>MOLECULE
ASD02030572
  57   60    0    0    0
SMALL
NO_CHARGES


@<TRIPOS>ATOM
   1 C1             1.6613     1.5196    -0.2194 C.2     
   2 N2             1.3611     0.2550    -0.5639 N.am    
   3 N3            -0.7855     0.9440    -1.2964 N.pl3   
   4 C4            -0.5009     2.2375    -0.9533 C.2     
   5 C5             0.7057     2.5450    -0.4179 C.2     
   6 N6             2.0732    -0.9505    -0.4940 N.2     
   7 C7             1.2904    -1.8833    -0.9715 C.2     
   8 N8             0.1298    -1.3422    -1.3380 N.2     
   9 C9             0.1475    -0.0458    -1.1009 C.2     
  10 C10           -1.5279     3.3190    -1.1699 C.3     
  11 N11            1.0060     3.8728    -0.0616 N.am    
  12 C12            1.6464    -3.3429    -1.0891 C.3     
  13 C13            1.2398    -4.0719     0.1931 C.3     
  14 C14            1.6012    -5.5538     0.0737 C.3     
  15 O15            2.7480     1.7808     0.2655 O.2     
  16 S16            2.5455     4.2803     0.3924 S.o2    
  17 O17            2.5610     5.6942     0.5341 O.2     
  18 O18            2.9036     3.3902     1.4406 O.2     
  19 C19            3.6059     3.9045    -0.9636 C.ar    
  20 C20            5.2268     2.4751    -1.9941 C.ar    
  21 C21            4.3949     2.7699    -0.9303 C.ar    
  22 C22            3.6447     4.7413    -2.0633 C.ar    
  23 C23            4.4767     4.4464    -3.1271 C.ar    
  24 C24            5.2703     3.3151    -3.0911 C.ar    
  25 C25            6.1772     2.9937    -4.2509 C.3     
  26 C26            5.3409     2.8258    -5.5210 C.3     
  27 C27            6.2617     2.4994    -6.6985 C.3     
  28 C28            7.2630     3.6396    -6.8942 C.3     
  29 C29            8.0993     3.8075    -5.6241 C.3     
  30 C30            7.1785     4.1339    -4.4466 C.3     
  31 H31           -1.6494     0.7247    -1.6792 H       
  32 H32           -2.4221     2.8862    -1.6184 H       
  33 H33           -1.7847     3.7730    -0.2128 H       
  34 H34           -1.1196     4.0798    -1.8351 H       
  35 H35            0.3112     4.5493    -0.0820 H       
  36 H36            1.1187    -3.7784    -1.9376 H       
  37 H37            2.7213    -3.4438    -1.2391 H       
  38 H38            1.7675    -3.6365     1.0416 H       
  39 H39            0.1649    -3.9711     0.3432 H       
  40 H40            1.0735    -5.9893    -0.7748 H       
  41 H41            2.6761    -5.6547    -0.0763 H       
  42 H42            1.3116    -6.0732     0.9872 H       
  43 H43            5.8435     1.5888    -1.9679 H       
  44 H44            4.3615     2.1140    -0.0729 H       
  45 H45            3.0248     5.6252    -2.0914 H       
  46 H46            4.5066     5.0998    -3.9865 H       
  47 H47            6.7157     2.0685    -4.0455 H       
  48 H48            4.6276     2.0135    -5.3816 H       
  49 H49            4.8024     3.7509    -5.7265 H       
  50 H50            6.8002     1.5742    -6.4931 H       
  51 H51            5.6659     2.3798    -7.6034 H       
  52 H52            7.9190     3.4071    -7.7331 H       
  53 H53            6.7245     4.5648    -7.0996 H       
  54 H54            8.6378     2.8823    -5.4187 H       
  55 H55            8.8127     4.6198    -5.7635 H       
  56 H56            6.6400     5.0590    -4.6520 H       
  57 H57            7.7743     4.2535    -3.5417 H       
@<TRIPOS>BOND
   1    1    2 am
   2    1    5 1
   3    1   15 2
   4    2    6 1
   5    2    9 1
   6    3    4 1
   7    3    9 1
   8    3   31 1
   9    4    5 2
  10    4   10 1
  11    5   11 1
  12    6    7 2
  13    7    8 1
  14    7   12 1
  15    8    9 2
  16   10   32 1
  17   10   33 1
  18   10   34 1
  19   11   16 am
  20   11   35 1
  21   12   13 1
  22   12   36 1
  23   12   37 1
  24   13   14 1
  25   13   38 1
  26   13   39 1
  27   14   40 1
  28   14   41 1
  29   14   42 1
  30   16   17 2
  31   16   18 2
  32   16   19 1
  33   19   22 ar
  34   19   21 ar
  35   20   21 ar
  36   20   24 ar
  37   20   43 1
  38   21   44 1
  39   22   23 ar
  40   22   45 1
  41   23   24 ar
  42   23   46 1
  43   24   25 1
  44   25   26 1
  45   25   30 1
  46   25   47 1
  47   26   27 1
  48   26   48 1
  49   26   49 1
  50   27   28 1
  51   27   50 1
  52   27   51 1
  53   28   29 1
  54   28   52 1
  55   28   53 1
  56   29   30 1
  57   29   54 1
  58   29   55 1
  59   30   56 1
  60   30   57 1

#	End of record

