#	Name: ASD01881131
#	Creating user name:	WinNT
#	Creation time:	15. 06. 2019 19:42

#	Modifying user name:	WinNT
#	Modification time:	15. 06. 2019 19:42

#	Program:	/corina/corina34_cracker 3.40 0067  02.08.2006

@<TRIPOS>MOLECULE
ASD01881131
  44   46    0    0    0
SMALL
NO_CHARGES


@<TRIPOS>ATOM
   1 N1            -0.0195     1.3064     0.0287 N.ar    
   2 C2             0.0060    -0.0109     0.0034 C.ar    
   3 N3             1.1399    -0.6822    -0.0300 N.ar    
   4 C4             2.3021    -0.0498    -0.0398 C.ar    
   5 C5             2.3158     1.3361    -0.0144 C.ar    
   6 C6             1.1036     2.0066     0.0209 C.ar    
   7 C7             3.6176     2.0952    -0.0239 C.3     
   8 O8             4.0746     2.2401    -1.3701 O.3     
   9 C9             5.2429     2.9053    -1.5558 C.ar    
  10 C10            5.7451     3.0821    -2.8418 C.ar    
  11 C11            6.9263     3.7552    -3.0295 C.ar    
  12 C12            7.6316     4.2666    -1.9348 C.ar    
  13 C13            7.1229     4.0865    -0.6441 C.ar    
  14 C14            5.9329     3.4139    -0.4628 C.ar    
  15 C15            7.7277     4.1126    -4.2565 C.3     
  16 N16            8.9057     4.8447    -3.7772 N.am    
  17 C17            8.8457     4.9309    -2.4372 C.2     
  18 O18            9.6761     5.4800    -1.7391 O.2     
  19 C19           -1.2958    -0.7700     0.0134 C.3     
  20 C20            3.5934    -0.8258    -0.0775 C.3     
  21 Cl21           7.9849     4.7138     0.7260 Cl      
  22 C22            9.6164     6.8239    -5.0258 C.3     
  23 C23            9.9714     5.3919    -4.6204 C.3     
  24 C24            1.0646     3.5129     0.0490 C.3     
  25 F25            1.7889     4.0184    -1.0359 F       
  26 F26           -0.2629     3.9466    -0.0338 F       
  27 F27            1.6316     3.9718     1.2428 F       
  28 H28            3.4667     3.0807     0.4167 H       
  29 H29            4.3614     1.5482     0.5555 H       
  30 H30            5.2059     2.6895    -3.6913 H       
  31 H31            5.5398     3.2750     0.5336 H       
  32 H32            8.0363     3.2074    -4.7794 H       
  33 H33            7.1370     4.7456    -4.9186 H       
  34 H34           -1.6288    -0.9337    -1.0115 H       
  35 H35           -1.1520    -1.7313     0.5066 H       
  36 H36           -2.0481    -0.1940     0.5523 H       
  37 H37            3.8860    -0.9942    -1.1139 H       
  38 H38            4.3726    -0.2594     0.4326 H       
  39 H39            3.4557    -1.7849     0.4216 H       
  40 H40            9.5085     7.4384    -4.1320 H       
  41 H41           10.4093     7.2310    -5.6532 H       
  42 H42            8.6784     6.8223    -5.5810 H       
  43 H43           10.9094     5.3934    -4.0652 H       
  44 H44           10.0792     4.7774    -5.5142 H       
@<TRIPOS>BOND
   1    1    2 ar
   2    1    6 ar
   3    2    3 ar
   4    2   19 1
   5    3    4 ar
   6    4    5 ar
   7    4   20 1
   8    5    6 ar
   9    5    7 1
  10    6   24 1
  11    7    8 1
  12    7   28 1
  13    7   29 1
  14    8    9 1
  15    9   10 ar
  16    9   14 ar
  17   10   11 ar
  18   10   30 1
  19   11   12 ar
  20   11   15 1
  21   12   13 ar
  22   12   17 1
  23   13   14 ar
  24   13   21 1
  25   14   31 1
  26   15   16 1
  27   15   32 1
  28   15   33 1
  29   16   17 am
  30   16   23 1
  31   17   18 2
  32   19   34 1
  33   19   35 1
  34   19   36 1
  35   20   37 1
  36   20   38 1
  37   20   39 1
  38   22   23 1
  39   22   40 1
  40   22   41 1
  41   22   42 1
  42   23   43 1
  43   23   44 1
  44   24   25 1
  45   24   26 1
  46   24   27 1

#	End of record

