#	Name: ASD01001052
#	Creating user name:	WinNT
#	Creation time:	15. 06. 2019 18:55

#	Modifying user name:	WinNT
#	Modification time:	15. 06. 2019 18:55

#	Program:	/corina/corina34_cracker 3.40 0067  02.08.2006

@<TRIPOS>MOLECULE
ASD01001052
  42   44    0    0    0
SMALL
NO_CHARGES


@<TRIPOS>ATOM
   1 C1            -0.0686     1.7829     0.2996 C.ar    
   2 C2            -0.1709     0.4690     0.7169 C.ar    
   3 C3             1.1747     2.3376     0.0608 C.ar    
   4 C4             0.9712    -0.2907     0.8955 C.ar    
   5 C5             2.3167     1.5786     0.2388 C.ar    
   6 C6             2.2156     0.2652     0.6563 C.ar    
   7 C7             3.6718     2.1839    -0.0227 C.3     
   8 C8             4.7401     1.1509     0.2276 C.ar    
   9 C9             3.7470     2.6475    -1.4546 C.ar    
  10 C10            3.8784     3.3312     0.8760 C.1     
  11 C11            4.8471     0.0517    -0.6038 C.ar    
  12 C12            5.6166     1.3054     1.2854 C.ar    
  13 C13            2.7224     2.3480    -2.3329 C.ar    
  14 C14            4.8380     3.3772    -1.8885 C.ar    
  15 C15            4.0432     4.2463     1.5928 C.1     
  16 C16            5.8306    -0.8929    -0.3776 C.ar    
  17 C17            6.5965     0.3578     1.5150 C.ar    
  18 C18            2.7888     2.7781    -3.6449 C.ar    
  19 C19            4.9071     3.8024    -3.2019 C.ar    
  20 C20            4.2499     5.3936     2.4916 C.3     
  21 C21            6.7074    -0.7382     0.6799 C.ar    
  22 C22            3.8796     3.5082    -4.0786 C.ar    
  23 N23            5.5708     5.9836     2.2367 N.3     
  24 H24            3.4772     6.1407     2.3105 H       
  25 Cl25           0.8435    -1.9406     1.4201 Cl      
  26 H26           -0.9604     2.3747     0.1558 H       
  27 H27           -1.1424     0.0358     0.9037 H       
  28 H28            1.2542     3.3641    -0.2652 H       
  29 H29            3.1077    -0.3273     0.7960 H       
  30 H30            4.1621    -0.0691    -1.4300 H       
  31 H31            5.5360     2.1665     1.9321 H       
  32 H32            1.8702     1.7776    -1.9940 H       
  33 H33            5.6363     3.6153    -1.2011 H       
  34 H34            5.9138    -1.7520    -1.0267 H       
  35 H35            7.2815     0.4786     2.3412 H       
  36 H36            1.9886     2.5435    -4.3313 H       
  37 H37            5.7593     4.3728    -3.5408 H       
  38 H38            4.1954     5.0582     3.5273 H       
  39 H39            7.4756    -1.4764     0.8569 H       
  40 H40            3.9335     3.8404    -5.1048 H       
  41 H41            5.6696     6.2437     1.2668 H       
  42 H42            5.7368     6.7738     2.8417 H       
@<TRIPOS>BOND
   1    1    2 ar
   2    1    3 ar
   3    1   26 1
   4    2    4 ar
   5    2   27 1
   6    3    5 ar
   7    3   28 1
   8    4    6 ar
   9    4   25 1
  10    5    6 ar
  11    5    7 1
  12    6   29 1
  13    7   10 1
  14    7    8 1
  15    7    9 1
  16    8   12 ar
  17    8   11 ar
  18    9   14 ar
  19    9   13 ar
  20   10   15 3
  21   11   16 ar
  22   11   30 1
  23   12   17 ar
  24   12   31 1
  25   13   18 ar
  26   13   32 1
  27   14   19 ar
  28   14   33 1
  29   15   20 1
  30   16   21 ar
  31   16   34 1
  32   17   21 ar
  33   17   35 1
  34   18   22 ar
  35   18   36 1
  36   19   22 ar
  37   19   37 1
  38   20   23 1
  39   20   24 1
  40   20   38 1
  41   21   39 1
  42   22   40 1
  43   23   41 1
  44   23   42 1

#	End of record

