#	Name: ASD01812749
#	Creating user name:	WinNT
#	Creation time:	15. 06. 2019 19:29

#	Modifying user name:	WinNT
#	Modification time:	15. 06. 2019 19:29

#	Program:	/corina/corina34_cracker 3.40 0067  02.08.2006

@<TRIPOS>MOLECULE
ASD01812749
  56   60    0    0    0
SMALL
NO_CHARGES


@<TRIPOS>ATOM
   1 C1             0.0574     1.4300    -0.6129 C.ar    
   2 C2             0.1009     0.0677    -0.8320 C.ar    
   3 C3             1.2830    -0.6334    -0.6460 C.ar    
   4 C4             2.4189     0.0256    -0.2424 C.ar    
   5 C5             2.3932     1.4052    -0.0163 C.ar    
   6 C6             1.1962     2.1091    -0.2052 C.ar    
   7 C7             3.8293    -0.4261     0.0440 C.3     
   8 N8             4.5724     0.7764     0.4379 N.am    
   9 C9             3.7392     1.8306     0.4015 C.2     
  10 C10            5.9887     0.8206     0.8099 C.3     
  11 C11            6.8239     1.0646    -0.4206 C.ar    
  12 C12            7.1221     2.3593    -0.8054 C.ar    
  13 C13            7.8866     2.5885    -1.9315 C.ar    
  14 C14            8.3581     1.5128    -2.6810 C.ar    
  15 C15            8.0547     0.2108    -2.2888 C.ar    
  16 C16            7.2941    -0.0071    -1.1578 C.ar    
  17 O17            1.1515     3.4479     0.0091 O.3     
  18 O18            4.0526     2.9731     0.6752 O.2     
  19 C19           -0.1276     4.0779    -0.0868 C.3     
  20 C20           -0.1309     5.3598     0.7517 C.3     
  21 C21           -1.4791     6.0661     0.5793 C.3     
  22 C22           -1.7143     6.3439    -0.9077 C.3     
  23 O23           -1.6681     5.1140    -1.6339 O.3     
  24 C24           -0.4150     4.4325    -1.5480 C.3     
  25 O25            0.0637     5.0308     2.1287 O.3     
  26 C26            9.1802     1.7531    -3.8931 C.2     
  27 N27            9.5395     2.9283    -4.3646 N.2     
  28 C28            9.7188     0.7637    -4.7385 C.2     
  29 C29           10.4006     1.3875    -5.7239 C.2     
  30 N30           10.3064     2.7187    -5.5178 N.pl3   
  31 C31           10.9054     3.7625    -6.3533 C.3     
  32 H32           -0.8658     1.9699    -0.7638 H       
  33 H33           -0.7896    -0.4546    -1.1493 H       
  34 H34            1.3105    -1.6992    -0.8183 H       
  35 H35            3.8325    -1.1518     0.8573 H       
  36 H36            4.2717    -0.8636    -0.8510 H       
  37 H37            6.1514     1.6268     1.5252 H       
  38 H38            6.2756    -0.1291     1.2613 H       
  39 H39            6.7558     3.1924    -0.2239 H       
  40 H40            8.1186     3.5998    -2.2312 H       
  41 H41            8.4174    -0.6266    -2.8664 H       
  42 H42            7.0620    -1.0161    -0.8505 H       
  43 H43           -0.8972     3.3997     0.2817 H       
  44 H44            0.6709     6.0173     0.4157 H       
  45 H45           -2.2761     5.4280     0.9611 H       
  46 H46           -1.4701     7.0075     1.1287 H       
  47 H47           -2.6916     6.8080    -1.0407 H       
  48 H48           -0.9396     7.0147    -1.2792 H       
  49 H49            0.3768     5.0782    -1.9279 H       
  50 H50           -0.4562     3.5196    -2.1423 H       
  51 H51            0.0726     5.7970     2.7186 H       
  52 H52            9.6069    -0.3039    -4.6199 H       
  53 H53           10.9301     0.9060    -6.5328 H       
  54 H54           11.9069     3.9900    -5.9881 H       
  55 H55           10.9652     3.4131    -7.3841 H       
  56 H56           10.2898     4.6609    -6.3094 H       
@<TRIPOS>BOND
   1    1    2 ar
   2    1    6 ar
   3    1   32 1
   4    2    3 ar
   5    2   33 1
   6    3    4 ar
   7    3   34 1
   8    4    7 1
   9    4    5 ar
  10    5    6 ar
  11    5    9 1
  12    6   17 1
  13    7    8 1
  14    7   35 1
  15    7   36 1
  16    8    9 am
  17    8   10 1
  18    9   18 2
  19   10   11 1
  20   10   37 1
  21   10   38 1
  22   11   12 ar
  23   11   16 ar
  24   12   13 ar
  25   12   39 1
  26   13   14 ar
  27   13   40 1
  28   14   15 ar
  29   14   26 1
  30   15   16 ar
  31   15   41 1
  32   16   42 1
  33   17   19 1
  34   19   20 1
  35   19   24 1
  36   19   43 1
  37   20   21 1
  38   20   25 1
  39   20   44 1
  40   21   22 1
  41   21   45 1
  42   21   46 1
  43   22   23 1
  44   22   47 1
  45   22   48 1
  46   23   24 1
  47   24   49 1
  48   24   50 1
  49   25   51 1
  50   26   28 1
  51   26   27 2
  52   27   30 1
  53   28   29 2
  54   28   52 1
  55   29   30 1
  56   29   53 1
  57   30   31 1
  58   31   54 1
  59   31   55 1
  60   31   56 1

#	End of record

