#	Name: ASD01881389
#	Creating user name:	WinNT
#	Creation time:	15. 06. 2019 19:42

#	Modifying user name:	WinNT
#	Modification time:	15. 06. 2019 19:42

#	Program:	/corina/corina34_cracker 3.40 0067  02.08.2006

@<TRIPOS>MOLECULE
ASD01881389
  33   35    0    0    0
SMALL
NO_CHARGES


@<TRIPOS>ATOM
   1 C1            -0.0187     1.5258     0.0104 C.3     
   2 C2             0.0021    -0.0041     0.0020 C.3     
   3 C3             0.7421    -0.5109     1.2415 C.3     
   4 C4             2.1775     0.0187     1.2307 C.3     
   5 C5             2.1567     1.5485     1.2391 C.3     
   6 C6             1.4167     2.0553    -0.0004 C.3     
   7 O7            -0.7098     1.9991    -1.1473 O.3     
   8 N8             2.8860    -0.4666     2.4176 N.pl3   
   9 C9             2.5184    -0.2132     3.7109 C.2     
  10 C10            3.3792    -0.8032     4.5553 C.2     
  11 C11            4.3799    -1.4908     3.7356 C.ar    
  12 C12            5.5061    -2.2641     4.0249 C.ar    
  13 C13            6.2553    -2.7797     3.0044 C.ar    
  14 C14            5.9053    -2.5401     1.6817 C.ar    
  15 C15            4.7986    -1.7797     1.3747 C.ar    
  16 C16            4.0179    -1.2508     2.3977 C.ar    
  17 Br17           7.7803    -3.8268     3.3965 Br      
  18 H18           -0.5289     1.8773     0.9072 H       
  19 H19           -1.0205    -0.3814     0.0098 H       
  20 H20            0.5123    -0.3556    -0.8948 H       
  21 H21            0.2319    -0.1594     2.1383 H       
  22 H22            0.7568    -1.6008     1.2356 H       
  23 H23            2.6876    -0.3328     0.3339 H       
  24 H24            1.6465     1.9000     2.1359 H       
  25 H25            3.1793     1.9258     1.2314 H       
  26 H26            1.9269     1.7038    -0.8972 H       
  27 H27            1.4019     3.1452     0.0056 H       
  28 H28           -0.7617     2.9629    -1.2077 H       
  29 H29            1.6629     0.3750     4.0084 H       
  30 H30            3.3415    -0.7757     5.6343 H       
  31 H31            5.7843    -2.4537     5.0510 H       
  32 H32            6.5071    -2.9539     0.8861 H       
  33 H33            4.5350    -1.5985     0.3432 H       
@<TRIPOS>BOND
   1    1    2 1
   2    1    6 1
   3    1    7 1
   4    1   18 1
   5    2    3 1
   6    2   19 1
   7    2   20 1
   8    3    4 1
   9    3   21 1
  10    3   22 1
  11    4    5 1
  12    4    8 1
  13    4   23 1
  14    5    6 1
  15    5   24 1
  16    5   25 1
  17    6   26 1
  18    6   27 1
  19    7   28 1
  20    8    9 1
  21    8   16 1
  22    9   10 2
  23    9   29 1
  24   10   11 1
  25   10   30 1
  26   11   12 ar
  27   11   16 ar
  28   12   13 ar
  29   12   31 1
  30   13   14 ar
  31   13   17 1
  32   14   15 ar
  33   14   32 1
  34   15   16 ar
  35   15   33 1

#	End of record

