#	Name: ASD01916176
#	Creating user name:	WinNT
#	Creation time:	15. 06. 2019 20:06

#	Modifying user name:	WinNT
#	Modification time:	15. 06. 2019 20:06

#	Program:	/corina/corina34_cracker 3.40 0067  02.08.2006

@<TRIPOS>MOLECULE
ASD01916176
  47   50    0    0    0
SMALL
NO_CHARGES


@<TRIPOS>ATOM
   1 C1             0.0178     1.3798     0.0699 C.ar    
   2 C2             0.0306    -0.0015     0.0505 C.ar    
   3 C3             1.2391    -0.6828     0.0452 C.ar    
   4 C4             2.4320     0.0253     0.0594 C.ar    
   5 C5             2.4138     1.4065     0.0788 C.ar    
   6 C6             1.2080     2.0832     0.0841 C.ar    
   7 O7             1.2543    -2.0416     0.0265 O.3     
   8 C8             2.5347    -2.6760     0.0221 C.3     
   9 C9             2.3540    -4.1720     0.0009 C.2     
  10 C10            2.2594    -4.9712    -1.1455 C.2     
  11 N11            2.2641    -4.9494     1.0516 N.2     
  12 N12            2.1081    -6.2654     0.6082 N.pl3   
  13 C13            2.1039    -6.2471    -0.7448 C.2     
  14 C14            1.9800    -7.4712     1.4313 C.3     
  15 C15            1.3780    -8.5986     0.5855 C.3     
  16 N16            2.0619    -8.6461    -0.7158 N.am    
  17 C17            1.9423    -7.4773    -1.6061 C.3     
  18 C18            2.7808    -9.7253    -1.0834 C.2     
  19 C19            3.3491    -9.8056    -2.4445 C.ar    
  20 O20            2.9614   -10.6327    -0.2947 O.2     
  21 C21            2.6507    -9.2689    -3.5283 C.ar    
  22 C22            4.4150    -9.9556    -4.9967 C.ar    
  23 C23            5.1153   -10.4849    -3.9234 C.ar    
  24 C24            4.5894   -10.4132    -2.6513 C.ar    
  25 C25            3.1858    -9.3461    -4.7962 C.ar    
  26 F26            4.9348   -10.0290    -6.2415 F       
  27 C27            2.3207    -4.4892    -2.5721 C.3     
  28 H28           -0.9227     1.9107     0.0695 H       
  29 H29           -0.8994    -0.5505     0.0398 H       
  30 H30            3.3740    -0.5028     0.0557 H       
  31 H31            3.3422     1.9582     0.0902 H       
  32 H32            1.1959     3.1630     0.0993 H       
  33 H33            3.0914    -2.3647    -0.8618 H       
  34 H34            3.0854    -2.3892     0.9180 H       
  35 H35            2.9637    -7.7720     1.7918 H       
  36 H36            1.3279    -7.2649     2.2800 H       
  37 H37            1.5093    -9.5501     1.1007 H       
  38 H38            0.3154    -8.4107     0.4316 H       
  39 H39            0.9607    -7.4697    -2.0800 H       
  40 H40            2.7230    -7.5072    -2.3661 H       
  41 H41            1.6929    -8.7946    -3.3733 H       
  42 H42            6.0744   -10.9546    -4.0844 H       
  43 H43            5.1356   -10.8258    -1.8160 H       
  44 H44            2.6466    -8.9315    -5.6350 H       
  45 H45            3.3557    -4.4971    -2.9141 H       
  46 H46            1.7242    -5.1473    -3.2039 H       
  47 H47            1.9267    -3.4746    -2.6300 H       
@<TRIPOS>BOND
   1    1    2 ar
   2    1    6 ar
   3    1   28 1
   4    2    3 ar
   5    2   29 1
   6    3    4 ar
   7    3    7 1
   8    4    5 ar
   9    4   30 1
  10    5    6 ar
  11    5   31 1
  12    6   32 1
  13    7    8 1
  14    8    9 1
  15    8   33 1
  16    8   34 1
  17    9   10 1
  18    9   11 2
  19   10   27 1
  20   10   13 2
  21   11   12 1
  22   12   13 1
  23   12   14 1
  24   13   17 1
  25   14   15 1
  26   14   35 1
  27   14   36 1
  28   15   16 1
  29   15   37 1
  30   15   38 1
  31   16   17 1
  32   16   18 am
  33   17   39 1
  34   17   40 1
  35   18   19 1
  36   18   20 2
  37   19   21 ar
  38   19   24 ar
  39   21   25 ar
  40   21   41 1
  41   22   23 ar
  42   22   26 1
  43   22   25 ar
  44   23   24 ar
  45   23   42 1
  46   24   43 1
  47   25   44 1
  48   27   45 1
  49   27   46 1
  50   27   47 1

#	End of record

