#	Name: ASD05790052
#	Creating user name:	WinNT
#	Creation time:	15. 06. 2019 21:03

#	Modifying user name:	WinNT
#	Modification time:	15. 06. 2019 21:03

#	Program:	/corina/corina34_cracker 3.40 0067  02.08.2006

@<TRIPOS>MOLECULE
ASD05790052
  42   45    0    0    0
SMALL
NO_CHARGES


@<TRIPOS>ATOM
   1 C1            -0.1753     1.4746    -0.5694 C.2     
   2 C2            -0.1532    -0.0033    -0.5732 C.ar    
   3 C3             0.8976    -0.6871    -1.1870 C.ar    
   4 C4             0.9124    -2.0665    -1.1866 C.ar    
   5 C5            -0.1113    -2.7722    -0.5796 C.ar    
   6 C6            -1.1558    -2.1006     0.0306 C.ar    
   7 C7            -1.1801    -0.7214     0.0420 C.ar    
   8 O8             0.7229     2.0973    -1.1015 O.2     
   9 N9            -1.1942     2.1318     0.0193 N.am    
  10 C10           -1.1619     3.5241     0.1191 C.ar    
  11 C11           -2.3411     4.2541     0.0191 C.ar    
  12 C12           -2.3125     5.6292     0.1168 C.ar    
  13 C13           -1.0961     6.2884     0.3171 C.ar    
  14 C14            0.0855     5.5511     0.4175 C.ar    
  15 C15            0.0487     4.1770     0.3241 C.ar    
  16 O16           -2.1264     8.5769     0.3417 O.3     
  17 C17           -1.0608     7.7613     0.4219 C.2     
  18 N18            0.0152     8.4874     0.6089 N.2     
  19 C19           -0.3453     9.7872     0.6517 C.2     
  20 C20           -1.6904     9.8438     0.4840 C.2     
  21 C21            0.5639    10.9437     0.8468 C.ar    
  22 C22            1.9327    10.7379     1.0069 C.ar    
  23 C23            2.7737    11.8172     1.1880 C.ar    
  24 C24            2.2600    13.1013     1.2109 C.ar    
  25 C25            0.9020    13.3114     1.0525 C.ar    
  26 C26            0.0526    12.2398     0.8649 C.ar    
  27 Cl27          -3.7847     6.5405    -0.0093 Cl      
  28 H28            1.6971    -0.1374    -1.6615 H       
  29 H29            1.7246    -2.5968    -1.6614 H       
  30 H30           -0.0951    -3.8521    -0.5823 H       
  31 H31           -1.9518    -2.6575     0.5027 H       
  32 H32           -1.9937    -0.1983     0.5226 H       
  33 H33           -1.9499     1.6375     0.3736 H       
  34 H34           -3.2802     3.7437    -0.1357 H       
  35 H35            1.0270     6.0573     0.5719 H       
  36 H36            0.9619     3.6063     0.4061 H       
  37 H37           -2.2976    10.7368     0.4670 H       
  38 H38            2.3348     9.7357     0.9896 H       
  39 H39            3.8347    11.6588     1.3125 H       
  40 H40            2.9216    13.9430     1.3532 H       
  41 H41            0.5061    14.3161     1.0715 H       
  42 H42           -1.0069    12.4053     0.7365 H       
@<TRIPOS>BOND
   1    1    2 1
   2    1    8 2
   3    1    9 am
   4    2    3 ar
   5    2    7 ar
   6    3    4 ar
   7    3   28 1
   8    4    5 ar
   9    4   29 1
  10    5    6 ar
  11    5   30 1
  12    6    7 ar
  13    6   31 1
  14    7   32 1
  15    9   10 1
  16    9   33 1
  17   10   11 ar
  18   10   15 ar
  19   11   12 ar
  20   11   34 1
  21   12   13 ar
  22   12   27 1
  23   13   14 ar
  24   13   17 1
  25   14   15 ar
  26   14   35 1
  27   15   36 1
  28   16   17 1
  29   16   20 1
  30   17   18 2
  31   18   19 1
  32   19   20 2
  33   19   21 1
  34   20   37 1
  35   21   22 ar
  36   21   26 ar
  37   22   23 ar
  38   22   38 1
  39   23   24 ar
  40   23   39 1
  41   24   25 ar
  42   24   40 1
  43   25   26 ar
  44   25   41 1
  45   26   42 1

#	End of record

