#	Name: ASD09116492
#	Creating user name:	WinNT
#	Creation time:	15. 06. 2019 21:21

#	Modifying user name:	WinNT
#	Modification time:	15. 06. 2019 21:21

#	Program:	/corina/corina34_cracker 3.40 0067  02.08.2006

@<TRIPOS>MOLECULE
ASD09116492
  75   81    0    0    0
SMALL
NO_CHARGES


@<TRIPOS>ATOM
   1 N1            -0.7611     5.1253     0.8889 N.2     
   2 N2            -1.0407     6.2862     1.6277 N.pl3   
   3 C3             0.5426     5.0558     0.7640 C.2     
   4 N4             1.0965     6.1057     1.3818 N.2     
   5 C5             0.1539     6.8579     1.9082 C.2     
   6 N6             0.3490     8.0254     2.6214 N.pl3   
   7 C7            -2.3012     6.7578     1.9989 C.ar    
   8 N8             1.2397     4.0492     0.0954 N.pl3   
   9 C9             2.6247     4.1453    -0.0633 C.ar    
  10 C10            3.4035     2.9950    -0.0905 C.ar    
  11 C11            3.2247     5.3914    -0.1999 C.ar    
  12 C12            4.5959     5.4748    -0.3562 C.ar    
  13 C13            5.3622     4.3380    -0.3776 C.ar    
  14 C14            4.7725     3.0919    -0.2479 C.ar    
  15 N15           -2.4301     7.5371     3.0623 N.ar    
  16 N16           -3.5683     7.9896     3.4524 N.ar    
  17 C17           -4.6877     7.6996     2.8088 C.ar    
  18 C18           -4.6463     6.9010     1.6624 C.ar    
  19 C19           -3.4260     6.4126     1.2454 C.ar    
  20 C20           -6.0066     8.1749     3.2870 C.ar    
  21 C21           -7.0513     7.2571     3.4077 C.ar    
  22 C22           -6.7971     5.8060     3.1044 C.3     
  23 C23           -6.7424     5.5529     1.6002 C.3     
  24 C24           -5.9101     6.6246     0.9013 C.3     
  25 C25           -6.2141     9.5115     3.6094 C.ar    
  26 C26           -7.4624     9.9274     4.0305 C.ar    
  27 C27           -8.5004     9.0187     4.1289 C.ar    
  28 C28           -8.2957     7.6857     3.8170 C.ar    
  29 C29            5.2476     6.8343    -0.5029 C.3     
  30 C30            5.7362     6.9846    -1.9457 C.3     
  31 C31            7.1164     6.3810    -2.1159 C.3     
  32 C32            7.1606     4.8713    -1.9861 C.3     
  33 C33            6.8641     4.4367    -0.5490 C.3     
  34 N34            7.6256     6.7496    -3.4436 N.3     
  35 C35            6.8332     6.1049    -4.5130 C.3     
  36 C36            9.0202     6.2734    -3.6298 C.3     
  37 C37            9.1886     6.2634    -5.1700 C.3     
  38 C38            7.8036     5.7886    -5.6661 C.3     
  39 C39           10.0125     7.2428    -2.9844 C.3     
  40 H40            1.2479     8.3573     2.7718 H       
  41 H41           -0.4130     8.5128     2.9716 H       
  42 H42            0.7629     3.2825    -0.2594 H       
  43 H43            2.9388     2.0255     0.0117 H       
  44 H44            2.6238     6.2887    -0.1844 H       
  45 H45            5.3807     2.1996    -0.2658 H       
  46 H46           -3.3439     5.7801     0.3739 H       
  47 H47           -5.8479     5.5093     3.5506 H       
  48 H48           -7.5968     5.2057     3.5381 H       
  49 H49           -6.2961     4.5755     1.4168 H       
  50 H50           -7.7551     5.5654     1.1972 H       
  51 H51           -6.4939     7.5423     0.8306 H       
  52 H52           -5.6568     6.2836    -0.1025 H       
  53 H53           -5.4035    10.2208     3.5312 H       
  54 H54           -7.6280    10.9642     4.2838 H       
  55 H55           -9.4763     9.3511     4.4505 H       
  56 H56           -9.1108     6.9814     3.8951 H       
  57 H57            4.5207     7.6151    -0.2792 H       
  58 H58            6.0936     6.9107     0.1802 H       
  59 H59            5.0394     6.4792    -2.6143 H       
  60 H60            5.7741     8.0432    -2.2026 H       
  61 H61            7.7774     6.8122    -1.3641 H       
  62 H62            6.4186     4.4326    -2.6532 H       
  63 H63            8.1512     4.5162    -2.2705 H       
  64 H64            7.2643     5.1742     0.1467 H       
  65 H65            7.3192     3.4647    -0.3590 H       
  66 H66            6.3867     5.1831    -4.1400 H       
  67 H67            6.0543     6.7843    -4.8590 H       
  68 H68            9.1415     5.2695    -3.2230 H       
  69 H69            9.4087     7.2646    -5.5405 H       
  70 H70            9.9669     5.5609    -5.4683 H       
  71 H71            7.8196     4.7168    -5.8639 H       
  72 H72            7.5154     6.3355    -6.5639 H       
  73 H73            9.8638     7.2496    -1.9046 H       
  74 H74           11.0303     6.9238    -3.2089 H       
  75 H75            9.8505     8.2455    -3.3798 H       
@<TRIPOS>BOND
   1    1    2 1
   2    1    3 2
   3    2    7 1
   4    2    5 1
   5    3    4 1
   6    3    8 1
   7    4    5 2
   8    5    6 1
   9    6   40 1
  10    6   41 1
  11    7   15 ar
  12    7   19 ar
  13    8    9 1
  14    8   42 1
  15    9   10 ar
  16    9   11 ar
  17   10   14 ar
  18   10   43 1
  19   11   12 ar
  20   11   44 1
  21   12   13 ar
  22   12   29 1
  23   13   14 ar
  24   13   33 1
  25   14   45 1
  26   15   16 ar
  27   16   17 ar
  28   17   18 ar
  29   17   20 1
  30   18   19 ar
  31   18   24 1
  32   19   46 1
  33   20   21 ar
  34   20   25 ar
  35   21   22 1
  36   21   28 ar
  37   22   23 1
  38   22   47 1
  39   22   48 1
  40   23   24 1
  41   23   49 1
  42   23   50 1
  43   24   51 1
  44   24   52 1
  45   25   26 ar
  46   25   53 1
  47   26   27 ar
  48   26   54 1
  49   27   28 ar
  50   27   55 1
  51   28   56 1
  52   29   30 1
  53   29   57 1
  54   29   58 1
  55   30   31 1
  56   30   59 1
  57   30   60 1
  58   31   32 1
  59   31   34 1
  60   31   61 1
  61   32   33 1
  62   32   62 1
  63   32   63 1
  64   33   64 1
  65   33   65 1
  66   34   35 1
  67   34   36 1
  68   35   38 1
  69   35   66 1
  70   35   67 1
  71   36   37 1
  72   36   39 1
  73   36   68 1
  74   37   38 1
  75   37   69 1
  76   37   70 1
  77   38   71 1
  78   38   72 1
  79   39   73 1
  80   39   74 1
  81   39   75 1

#	End of record

