#	Name: ASD01812565
#	Creating user name:	WinNT
#	Creation time:	15. 06. 2019 19:28

#	Modifying user name:	WinNT
#	Modification time:	15. 06. 2019 19:28

#	Program:	/corina/corina34_cracker 3.40 0067  02.08.2006

@<TRIPOS>MOLECULE
ASD01812565
  58   62    0    0    0
SMALL
NO_CHARGES


@<TRIPOS>ATOM
   1 C1            -0.0179     1.4668     0.0101 C.3     
   2 N2             0.0021    -0.0041     0.0020 N.3     
   3 C3            -1.3485    -0.5406    -0.2060 C.3     
   4 N4            -2.1424    -0.5874     1.0253 N.am    
   5 C5            -3.5903    -0.3704     0.9708 C.3     
   6 H6            -3.8934    -0.1909    -0.0607 H       
   7 C7            -4.3145    -1.6079     1.5097 C.3     
   8 C8            -5.8221    -1.3421     1.5224 C.3     
   9 O9            -6.0939    -0.1858     2.3170 O.3     
  10 C10           -5.4812     1.0114     1.8338 C.3     
  11 C11           -3.9596     0.8414     1.8318 C.3     
  12 H12           -3.6107     0.6832     2.8522 H       
  13 O13           -3.3470     2.0146     1.2929 O.3     
  14 C14           -1.5313    -0.8294     2.2059 C.2     
  15 O15           -2.1785    -0.9864     3.2247 O.2     
  16 C16           -0.0585    -0.8788     2.2419 C.ar    
  17 C17            0.6141    -1.2984     3.4019 C.ar    
  18 C18            1.9703    -1.3622     3.4401 C.ar    
  19 C19            2.6393    -1.8059     4.7155 C.3     
  20 C20            3.0238    -0.5965     5.5281 C.ar    
  21 C21            4.2612     0.0060     5.3618 C.ar    
  22 C22            4.5790     1.1138     6.1250 C.ar    
  23 N23            3.7213     1.5971     7.0021 N.ar    
  24 C24            2.5357     1.0498     7.1869 C.ar    
  25 C25            1.5924     1.6414     8.2024 C.3     
  26 F26            0.7928     2.6106     7.5870 F       
  27 C27            2.1462    -0.0563     6.4560 C.ar    
  28 C28            2.7333    -1.0271     2.3054 C.ar    
  29 C29            4.1349    -1.0775     2.3154 C.ar    
  30 C30            4.8353    -0.7972     1.1798 C.ar    
  31 C31            4.1796    -0.4490     0.0028 C.ar    
  32 C32            2.8208    -0.3614    -0.0414 C.ar    
  33 C33            2.0696    -0.6233     1.1163 C.ar    
  34 C34            0.6646    -0.4928     1.1107 C.ar    
  35 H35            1.0047     1.8441     0.0024 H       
  36 H36           -0.5451     1.8279    -0.8730 H       
  37 H37           -0.5281     1.8183     0.9069 H       
  38 H38           -1.8721     0.0807    -0.9329 H       
  39 H39           -1.2645    -1.5528    -0.6070 H       
  40 H40           -4.1008    -2.4631     0.8686 H       
  41 H41           -3.9730    -1.8172     2.5235 H       
  42 H42           -6.1700    -1.1729     0.5034 H       
  43 H43           -6.3395    -2.2033     1.9451 H       
  44 H44           -5.8246     1.2114     0.8188 H       
  45 H45           -5.7530     1.8455     2.4806 H       
  46 H46           -3.5386     2.8219     1.7895 H       
  47 H47            0.0434    -1.5713     4.2789 H       
  48 H48            1.9510    -2.4259     5.2901 H       
  49 H49            3.5331    -2.3817     4.4756 H       
  50 H50            4.9681    -0.3854     4.6452 H       
  51 H51            5.5411     1.5887     6.0017 H       
  52 H52            0.9591     0.8544     8.6118 H       
  53 H53            2.1664     2.1013     9.0068 H       
  54 H54            1.1721    -0.4972     6.6086 H       
  55 H55            4.6829    -1.3327     3.2100 H       
  56 H56            5.9136    -0.8503     1.1984 H       
  57 H57            4.7564    -0.2498    -0.8868 H       
  58 H58            2.3204    -0.1021    -0.9614 H       
@<TRIPOS>BOND
   1    1    2 1
   2    1   35 1
   3    1   36 1
   4    1   37 1
   5    2   34 1
   6    2    3 1
   7    3    4 1
   8    3   38 1
   9    3   39 1
  10    4    5 1
  11    4   14 am
  12    5    6 1
  13    5   11 1
  14    5    7 1
  15    7    8 1
  16    7   40 1
  17    7   41 1
  18    8    9 1
  19    8   42 1
  20    8   43 1
  21    9   10 1
  22   10   11 1
  23   10   44 1
  24   10   45 1
  25   11   12 1
  26   11   13 1
  27   13   46 1
  28   14   15 2
  29   14   16 1
  30   16   34 ar
  31   16   17 ar
  32   17   18 ar
  33   17   47 1
  34   18   19 1
  35   18   28 ar
  36   19   20 1
  37   19   48 1
  38   19   49 1
  39   20   27 ar
  40   20   21 ar
  41   21   22 ar
  42   21   50 1
  43   22   23 ar
  44   22   51 1
  45   23   24 ar
  46   24   25 1
  47   24   27 ar
  48   25   26 1
  49   25   52 1
  50   25   53 1
  51   27   54 1
  52   28   33 ar
  53   28   29 ar
  54   29   30 ar
  55   29   55 1
  56   30   31 ar
  57   30   56 1
  58   31   32 ar
  59   31   57 1
  60   32   33 ar
  61   32   58 1
  62   33   34 ar

#	End of record

