#	Name: ASD02508170
#	Creating user name:	WinNT
#	Creation time:	15. 06. 2019 20:23

#	Modifying user name:	WinNT
#	Modification time:	15. 06. 2019 20:23

#	Program:	/corina/corina34_cracker 3.40 0067  02.08.2006

@<TRIPOS>MOLECULE
ASD02508170
  52   55    0    0    0
SMALL
NO_CHARGES


@<TRIPOS>ATOM
   1 C1            -0.0168     1.3911     0.0097 C.ar    
   2 C2             0.0021    -0.0041     0.0020 C.ar    
   3 C3            -1.1670    -0.7436     0.0096 C.ar    
   4 C4            -2.3892    -0.1001     0.0251 C.ar    
   5 C5            -2.4296     1.2837     0.0330 C.ar    
   6 C6            -1.2699     2.0227     0.0305 C.ar    
   7 S7            -3.8842    -1.0326     0.0343 S.o2    
   8 N8            -4.2848    -1.3010     1.6186 N.am    
   9 C9            -5.1351    -0.3489     2.3468 C.3     
  10 C10           -6.3392    -1.1063     2.9201 C.3     
  11 N11           -5.8512    -2.3012     3.6229 N.am    
  12 C12           -5.0008    -3.2533     2.8947 C.3     
  13 C13           -3.8013    -2.4988     2.3197 C.3     
  14 S14           -6.2517    -2.5697     5.2071 S.o2    
  15 C15           -7.7471    -3.5016     5.2163 C.ar    
  16 C16           -7.6992    -4.8834     5.2078 C.ar    
  17 C17           -8.8702    -5.6163     5.2150 C.ar    
  18 C18          -10.0949    -4.9648     5.2307 C.ar    
  19 C19          -10.1402    -3.5782     5.2392 C.ar    
  20 C20           -8.9663    -2.8499     5.2377 C.ar    
  21 N21            1.2342     1.9813     0.0009 N.am    
  22 C22            2.3140     1.1938    -0.0136 C.2     
  23 S23            1.7082    -0.4709    -0.0168 S.3     
  24 O24           -4.8913    -0.1815    -0.4955 O.2     
  25 O25           -3.5687    -2.3022    -0.5204 O.2     
  26 C26            1.3727     3.4397     0.0069 C.3     
  27 O27            3.4782     1.5486    -0.0234 O.2     
  28 O28           -5.2450    -3.4212     5.7368 O.2     
  29 O29           -6.5668    -1.3000     5.7620 O.2     
  30 O30          -11.2482    -5.6835     5.2373 O.3     
  31 C31          -12.4721    -4.9461     5.2536 C.3     
  32 H32           -1.1242    -1.8228     0.0030 H       
  33 H33           -3.3839     1.7892     0.0451 H       
  34 H34           -1.3241     3.1013     0.0371 H       
  35 H35           -4.5660     0.1024     3.1595 H       
  36 H36           -5.4822     0.4274     1.6648 H       
  37 H37           -6.8761    -0.4647     3.6188 H       
  38 H38           -7.0036    -1.4048     2.1091 H       
  39 H39           -4.6538    -4.0296     3.5766 H       
  40 H40           -5.5699    -3.7046     2.0819 H       
  41 H41           -3.2654    -3.1415     1.6213 H       
  42 H42           -3.1357    -2.1987     3.1291 H       
  43 H43           -6.7456    -5.3902     5.1952 H       
  44 H44           -8.8323    -6.6956     5.2080 H       
  45 H45          -11.0924    -3.0687     5.2515 H       
  46 H46           -9.0011    -1.7705     5.2443 H       
  47 H47            1.4167     3.7963     1.0360 H       
  48 H48            2.2881     3.7199    -0.5141 H       
  49 H49            0.5162     3.8881    -0.4966 H       
  50 H50          -12.5096    -4.3239     6.1478 H       
  51 H51          -12.5266    -4.3130     4.3680 H       
  52 H52          -13.3137    -5.6388     5.2574 H       
@<TRIPOS>BOND
   1    1    2 ar
   2    1   21 1
   3    1    6 ar
   4    2    3 ar
   5    2   23 1
   6    3    4 ar
   7    3   32 1
   8    4    5 ar
   9    4    7 1
  10    5    6 ar
  11    5   33 1
  12    6   34 1
  13    7    8 am
  14    7   24 2
  15    7   25 2
  16    8    9 1
  17    8   13 1
  18    9   10 1
  19    9   35 1
  20    9   36 1
  21   10   11 1
  22   10   37 1
  23   10   38 1
  24   11   12 1
  25   11   14 am
  26   12   13 1
  27   12   39 1
  28   12   40 1
  29   13   41 1
  30   13   42 1
  31   14   15 1
  32   14   28 2
  33   14   29 2
  34   15   16 ar
  35   15   20 ar
  36   16   17 ar
  37   16   43 1
  38   17   18 ar
  39   17   44 1
  40   18   19 ar
  41   18   30 1
  42   19   20 ar
  43   19   45 1
  44   20   46 1
  45   21   22 am
  46   21   26 1
  47   22   23 1
  48   22   27 2
  49   26   47 1
  50   26   48 1
  51   26   49 1
  52   30   31 1
  53   31   50 1
  54   31   51 1
  55   31   52 1

#	End of record

