#	Name: ASD01884472
#	Creating user name:	WinNT
#	Creation time:	15. 06. 2019 19:48

#	Modifying user name:	WinNT
#	Modification time:	15. 06. 2019 19:48

#	Program:	/corina/corina34_cracker 3.40 0067  02.08.2006

@<TRIPOS>MOLECULE
ASD01884472
  46   49    0    0    0
SMALL
NO_CHARGES


@<TRIPOS>ATOM
   1 C1            -0.6992     1.1998     1.3396 C.ar    
   2 C2            -0.6722    -0.1838     1.2584 C.ar    
   3 C3            -1.9356    -0.9567     0.9802 C.3     
   4 N4            -2.0980    -1.1227    -0.4663 N.pl3   
   5 C5            -3.2049    -1.8121    -0.9711 C.ar    
   6 C6            -4.1531    -2.3409    -0.0967 C.ar    
   7 C7            -3.3599    -1.9632    -2.3376 C.ar    
   8 C8            -5.2479    -3.0224    -0.5776 C.ar    
   9 C9            -5.4185    -3.1904    -1.9497 C.ar    
  10 C10           -4.4669    -2.6522    -2.8323 C.ar    
  11 N11           -6.5145    -3.8724    -2.4402 N.pl3   
  12 C12           -6.7251    -4.0604    -3.7509 C.2     
  13 C13           -5.8560    -3.5832    -4.7107 C.2     
  14 C14           -4.6619    -2.8387    -4.2823 C.2     
  15 O15           -3.8648    -2.3974    -5.0918 O.2     
  16 C16           -6.1221    -3.8112    -6.1397 C.2     
  17 O17           -7.0480    -4.5230    -6.4800 O.2     
  18 N18           -5.3399    -3.2315    -7.0717 N.am    
  19 C19           -7.4445    -4.3897    -1.5306 C.ar    
  20 C20           -8.7253    -3.8563    -1.4665 C.ar    
  21 C21           -9.6412    -4.3684    -0.5689 C.ar    
  22 C22           -9.2835    -5.4131     0.2670 C.ar    
  23 C23           -8.0069    -5.9464     0.2047 C.ar    
  24 C24           -7.0895    -5.4408    -0.6951 C.ar    
  25 F25          -10.1811    -5.9123     1.1448 F       
  26 C26            0.5284    -0.8456     1.4354 C.ar    
  27 N27            1.6380    -0.1762     1.6792 N.ar    
  28 C28            1.6496     1.1399     1.7633 C.ar    
  29 C29            0.4877     1.8691     1.5970 C.ar    
  30 H30           -1.6219     1.7438     1.2013 H       
  31 H31           -1.8739    -1.9365     1.4537 H       
  32 H32           -2.7904    -0.4123     1.3816 H       
  33 H33           -1.4377    -0.7543    -1.0739 H       
  34 H34           -4.0272    -2.2149     0.9685 H       
  35 H35           -2.6287    -1.5500    -3.0166 H       
  36 H36           -5.9755    -3.4278     0.1099 H       
  37 H37           -7.6038    -4.6035    -4.0659 H       
  38 H38           -4.6486    -2.6061    -6.8038 H       
  39 H39           -5.4684    -3.4396    -8.0103 H       
  40 H40           -9.0045    -3.0414    -2.1179 H       
  41 H41          -10.6372    -3.9536    -0.5184 H       
  42 H42           -7.7300    -6.7611     0.8574 H       
  43 H43           -6.0942    -5.8573    -0.7436 H       
  44 H44            0.5580    -1.9234     1.3737 H       
  45 H45            2.5780     1.6537     1.9647 H       
  46 H46            0.5036     2.9467     1.6674 H       
@<TRIPOS>BOND
   1    1    2 ar
   2    1   29 ar
   3    1   30 1
   4    2    3 1
   5    2   26 ar
   6    3    4 1
   7    3   31 1
   8    3   32 1
   9    4    5 1
  10    4   33 1
  11    5    6 ar
  12    5    7 ar
  13    6    8 ar
  14    6   34 1
  15    7   10 ar
  16    7   35 1
  17    8    9 ar
  18    8   36 1
  19    9   10 ar
  20    9   11 1
  21   10   14 1
  22   11   12 1
  23   11   19 1
  24   12   13 2
  25   12   37 1
  26   13   14 1
  27   13   16 1
  28   14   15 2
  29   16   17 2
  30   16   18 am
  31   18   38 1
  32   18   39 1
  33   19   20 ar
  34   19   24 ar
  35   20   21 ar
  36   20   40 1
  37   21   22 ar
  38   21   41 1
  39   22   23 ar
  40   22   25 1
  41   23   24 ar
  42   23   42 1
  43   24   43 1
  44   26   27 ar
  45   26   44 1
  46   27   28 ar
  47   28   29 ar
  48   28   45 1
  49   29   46 1

#	End of record

