#	Name: ASD03330490
#	Creating user name:	WinNT
#	Creation time:	15. 06. 2019 20:37

#	Modifying user name:	WinNT
#	Modification time:	15. 06. 2019 20:37

#	Program:	/corina/corina34_cracker 3.40 0067  02.08.2006

@<TRIPOS>MOLECULE
ASD03330490
  54   56    0    0    0
SMALL
NO_CHARGES


@<TRIPOS>ATOM
   1 C1            -0.0179     1.4653     0.0101 C.3     
   2 N2             0.0021    -0.0041     0.0020 N.3     
   3 C3             0.4455    -0.5240    -1.3042 C.3     
   4 C4             1.7196     0.1875    -1.6796 C.2     
   5 N5             2.1509     1.3337    -1.0776 N.pl3   
   6 C6             1.4181     2.0053    -0.0007 C.3     
   7 C7             2.6363    -0.1381    -2.6242 C.2     
   8 N8             3.6116     0.7991    -2.5909 N.2     
   9 C9             3.3256     1.6852    -1.6630 C.2     
  10 C10            4.1449     2.8665    -1.3147 C.ar    
  11 C11            2.5804    -1.3030    -3.5249 C.2     
  12 O12            1.6462    -2.0789    -3.4583 O.2     
  13 C13            3.5089    -2.6667    -5.3181 C.3     
  14 N14            3.5645    -1.5086    -4.4226 N.am    
  15 C15           -1.3116    -0.5504     0.3677 C.3     
  16 C16            4.0997    -3.8876    -4.6101 C.3     
  17 C17            4.3034    -2.3759    -6.5652 C.2     
  18 O18            4.8611    -1.3066    -6.6934 O.2     
  19 N19            4.3941    -3.3042    -7.5381 N.am    
  20 C20            5.1664    -3.0215    -8.7505 C.3     
  21 C21            5.1540     3.2968    -2.1765 C.ar    
  22 C22            5.9162     4.3991    -1.8481 C.ar    
  23 C23            5.6818     5.0789    -0.6644 C.ar    
  24 C24            4.6795     4.6555     0.1976 C.ar    
  25 C25            3.9071     3.5573    -0.1258 C.ar    
  26 C26            5.5127    -3.5604    -4.1229 C.3     
  27 C27            3.2208    -4.2584    -3.4139 C.3     
  28 F28            6.4313     6.1573    -0.3476 F       
  29 F29            4.4557     5.3217     1.3513 F       
  30 H30           -0.5469     1.8253    -0.8723 H       
  31 H31           -0.5299     1.8158     0.9062 H       
  32 H32            0.6299    -1.5958    -1.2308 H       
  33 H33           -0.3195    -0.3316    -2.0564 H       
  34 H34            1.4055     3.0805    -0.1793 H       
  35 H35            1.8969     1.7964     0.9560 H       
  36 H36            2.4721    -2.8689    -5.5866 H       
  37 H37            4.3096    -0.8897    -4.4757 H       
  38 H38           -2.0710    -0.1513    -0.3048 H       
  39 H39           -1.2888    -1.6371     0.2858 H       
  40 H40           -1.5498    -0.2682     1.3932 H       
  41 H41            4.1402    -4.7263    -5.3051 H       
  42 H42            3.9481    -4.1594    -7.4356 H       
  43 H43            5.1251    -3.8832    -9.4168 H       
  44 H44            4.7455    -2.1517    -9.2549 H       
  45 H45            6.2033    -2.8193    -8.4819 H       
  46 H46            5.3387     2.7675    -3.0996 H       
  47 H47            6.6974     4.7322    -2.5153 H       
  48 H48            3.1271     3.2280     0.5447 H       
  49 H49            5.4723    -2.7217    -3.4279 H       
  50 H50            5.9336    -4.4302    -3.6185 H       
  51 H51            6.1389    -3.2963    -4.9751 H       
  52 H52            3.1804    -3.4196    -2.7189 H       
  53 H53            2.2142    -4.4914    -3.7610 H       
  54 H54            3.6418    -5.1282    -2.9095 H       
@<TRIPOS>BOND
   1    1    2 1
   2    1    6 1
   3    1   30 1
   4    1   31 1
   5    2    3 1
   6    2   15 1
   7    3    4 1
   8    3   32 1
   9    3   33 1
  10    4    5 1
  11    4    7 2
  12    5    6 1
  13    5    9 1
  14    6   34 1
  15    6   35 1
  16    7    8 1
  17    7   11 1
  18    8    9 2
  19    9   10 1
  20   10   21 ar
  21   10   25 ar
  22   11   12 2
  23   11   14 am
  24   13   14 1
  25   13   16 1
  26   13   17 1
  27   13   36 1
  28   14   37 1
  29   15   38 1
  30   15   39 1
  31   15   40 1
  32   16   26 1
  33   16   27 1
  34   16   41 1
  35   17   18 2
  36   17   19 am
  37   19   20 1
  38   19   42 1
  39   20   43 1
  40   20   44 1
  41   20   45 1
  42   21   22 ar
  43   21   46 1
  44   22   23 ar
  45   22   47 1
  46   23   24 ar
  47   23   28 1
  48   24   25 ar
  49   24   29 1
  50   25   48 1
  51   26   49 1
  52   26   50 1
  53   26   51 1
  54   27   52 1
  55   27   53 1
  56   27   54 1

#	End of record

