#	Name: ASD04880094
#	Creating user name:	WinNT
#	Creation time:	15. 06. 2019 20:52

#	Modifying user name:	WinNT
#	Modification time:	15. 06. 2019 20:52

#	Program:	/corina/corina34_cracker 3.40 0067  02.08.2006

@<TRIPOS>MOLECULE
ASD04880094
  53   55    0    0    0
SMALL
NO_CHARGES


@<TRIPOS>ATOM
   1 C1            -0.0144     1.2118     0.0087 C.2     
   2 O2             0.0438    -0.0026     0.0314 O.2     
   3 N3             1.1184     1.9398    -0.0481 N.am    
   4 N4             1.1857     3.3242    -0.1907 N.2     
   5 C5             2.3858     3.7927    -0.2195 C.2     
   6 C6             3.3747     2.6567    -0.0853 C.3     
   7 C7             2.4859     1.4031     0.0366 C.3     
   8 C8             2.7401     5.2165    -0.3622 C.ar    
   9 C9             1.7346     6.1803    -0.4792 C.ar    
  10 C10            2.0723     7.5136    -0.6122 C.ar    
  11 C11            3.4126     7.8948    -0.6296 C.ar    
  12 C12            4.4107     6.9386    -0.5141 C.ar    
  13 C13            4.0814     5.6064    -0.3751 C.ar    
  14 O14            3.7427     9.2069    -0.7606 O.3     
  15 C15            5.1352     9.5277    -0.7708 C.3     
  16 O16            1.0965     8.4540    -0.7267 O.3     
  17 C17           -0.2556     7.9922    -0.7015 C.3     
  18 C18           -1.3276     1.8893     0.0373 C.ar    
  19 C19           -2.5039     1.1427    -0.0542 C.ar    
  20 C20           -3.7262     1.7812    -0.0265 C.ar    
  21 C21           -3.7882     3.1586     0.0918 C.ar    
  22 C22           -2.6265     3.9044     0.1825 C.ar    
  23 C23           -1.3974     3.2778     0.1617 C.ar    
  24 C24           -4.9969     0.9772    -0.1256 C.3     
  25 C25           -5.0679    -0.0102     1.0409 C.3     
  26 C26           -6.2017     1.9186    -0.0710 C.3     
  27 C27           -5.0111     0.2068    -1.4475 C.3     
  28 H28            4.0092     2.5957    -0.9695 H       
  29 H29            3.9797     2.7807     0.8128 H       
  30 H30            2.6454     0.9092     0.9951 H       
  31 H31            2.6801     0.7161    -0.7871 H       
  32 H32            0.6962     5.8836    -0.4659 H       
  33 H33            5.4482     7.2384    -0.5287 H       
  34 H34            4.8605     4.8644    -0.2809 H       
  35 H35            5.2591    10.6050    -0.8808 H       
  36 H36            5.5896     9.2034     0.1654 H       
  37 H37            5.6190     9.0193    -1.6048 H       
  38 H38           -0.9315     8.8415    -0.8014 H       
  39 H39           -0.4183     7.2993    -1.5271 H       
  40 H40           -0.4483     7.4836     0.2430 H       
  41 H41           -2.4569     0.0677    -0.1469 H       
  42 H42           -4.7478     3.6537     0.1131 H       
  43 H43           -2.6819     4.9791     0.2739 H       
  44 H44           -0.4914     3.8607     0.2375 H       
  45 H45           -5.0578     0.5386     1.9826 H       
  46 H46           -5.9870    -0.5918     0.9692 H       
  47 H47           -4.2096    -0.6809     1.0020 H       
  48 H48           -6.1510     2.6221    -0.9021 H       
  49 H49           -7.1208     1.3371    -0.1428 H       
  50 H50           -6.1915     2.4675     0.8706 H       
  51 H51           -4.1528    -0.4639    -1.4864 H       
  52 H52           -5.9302    -0.3747    -1.5192 H       
  53 H53           -4.9605     0.9103    -2.2785 H       
@<TRIPOS>BOND
   1    1    2 2
   2    1    3 am
   3    1   18 1
   4    3    4 1
   5    3    7 1
   6    4    5 2
   7    5    6 1
   8    5    8 1
   9    6    7 1
  10    6   28 1
  11    6   29 1
  12    7   30 1
  13    7   31 1
  14    8    9 ar
  15    8   13 ar
  16    9   10 ar
  17    9   32 1
  18   10   11 ar
  19   10   16 1
  20   11   12 ar
  21   11   14 1
  22   12   13 ar
  23   12   33 1
  24   13   34 1
  25   14   15 1
  26   15   35 1
  27   15   36 1
  28   15   37 1
  29   16   17 1
  30   17   38 1
  31   17   39 1
  32   17   40 1
  33   18   19 ar
  34   18   23 ar
  35   19   20 ar
  36   19   41 1
  37   20   21 ar
  38   20   24 1
  39   21   22 ar
  40   21   42 1
  41   22   23 ar
  42   22   43 1
  43   23   44 1
  44   24   25 1
  45   24   27 1
  46   24   26 1
  47   25   45 1
  48   25   46 1
  49   25   47 1
  50   26   48 1
  51   26   49 1
  52   26   50 1
  53   27   51 1
  54   27   52 1
  55   27   53 1

#	End of record

