#	Name: ASD07932209
#	Creating user name:	WinNT
#	Creation time:	15. 06. 2019 21:14

#	Modifying user name:	WinNT
#	Modification time:	15. 06. 2019 21:14

#	Program:	/corina/corina34_cracker 3.40 0067  02.08.2006

@<TRIPOS>MOLECULE
ASD07932209
  61   62    0    0    0
SMALL
NO_CHARGES


@<TRIPOS>ATOM
   1 Cl1            0.0000     0.0000     0.0000 Cl      
   2 H2             0.0000     1.3700     0.0000 H       
   3 Cl3            5.0000     6.3700     5.0000 Cl      
   4 H4             5.0000     7.7400     5.0000 H       
   5 C5            10.9475    19.7875    16.3415 C.ar    
   6 C6            10.9664    18.3949    16.3338 C.ar    
   7 C7            12.1460    17.7098    16.3188 C.ar    
   8 C8            13.3607    18.4170    16.3110 C.ar    
   9 C9            13.3448    19.8365    16.3187 C.ar    
  10 C10           12.1047    20.5070    16.3343 C.ar    
  11 C11           14.5971    17.7454    16.2960 C.ar    
  12 C12           15.7388    18.4938    16.2895 C.ar    
  13 C13           15.6549    19.8942    16.2978 C.ar    
  14 N14           14.4914    20.5151    16.3114 N.ar    
  15 C15           16.9028    20.6945    16.2905 C.2     
  16 N16           16.8401    22.0407    16.2983 N.am    
  17 O17           17.9822    20.1366    16.2776 O.2     
  18 C18           18.0732    22.8316    16.2911 C.3     
  19 C19           17.8025    24.2041    16.9106 C.3     
  20 C20           19.0904    25.0300    16.9031 C.3     
  21 C21           19.5743    25.2072    15.4625 C.3     
  22 C22           19.8451    23.8346    14.8431 C.3     
  23 C23           18.5572    23.0087    14.8505 C.3     
  24 O24           17.3505    24.0387    18.2561 O.3     
  25 C25           14.6593    16.2397    16.2879 C.3     
  26 N26           14.4265    15.7474    14.9236 N.3     
  27 C27           14.7117    14.3101    14.8270 C.3     
  28 C28           14.3210    13.8035    13.4368 C.3     
  29 C29           15.1145    14.5727    12.3770 C.3     
  30 C30           14.8371    16.0707    12.5305 C.3     
  31 C31           15.2129    16.5116    13.9470 C.3     
  32 F32           16.4815    14.3303    12.5491 F       
  33 F33           12.0639    21.8573    16.3415 F       
  34 C34           14.7004    14.1307    11.0354 C.1     
  35 N35           14.3808    13.7895    10.0000 N.1     
  36 F36           12.1466    16.3589    16.3120 F       
  37 H37           10.0000    20.3058    16.3487 H       
  38 H38           10.0341    17.8497    16.3402 H       
  39 H39           16.7039    18.0092    16.2784 H       
  40 H40           15.9784    22.4860    16.3086 H       
  41 H41           18.8389    22.3160    16.8708 H       
  42 H42           17.0368    24.7197    16.3309 H       
  43 H43           18.8975    26.0079    17.3445 H       
  44 H44           19.8560    24.5144    17.4828 H       
  45 H45           18.8087    25.7228    14.8829 H       
  46 H46           20.4918    25.7956    15.4572 H       
  47 H47           20.1898    23.9608    13.8167 H       
  48 H48           20.6107    23.3190    15.4227 H       
  49 H49           18.7500    22.0309    14.4092 H       
  50 H50           17.7915    23.5243    14.2709 H       
  51 H51           17.1591    24.8698    18.7117 H       
  52 H52           15.6424    15.9149    16.6286 H       
  53 H53           13.8940    15.8409    16.9537 H       
  54 H54           15.7758    14.1393    14.9900 H       
  55 H55           14.1380    13.7743    15.5833 H       
  56 H56           14.5473    12.7400    13.3601 H       
  57 H57           13.2542    13.9614    13.2784 H       
  58 H58           15.4322    16.6271    11.8063 H       
  59 H59           13.7785    16.2643    12.3578 H       
  60 H60           15.0032    17.5748    14.0640 H       
  61 H61           16.2746    16.3304    14.1141 H       
@<TRIPOS>BOND
   1    1    2 1
   2    3    4 1
   3    5    6 ar
   4    5   10 ar
   5    5   37 1
   6    6    7 ar
   7    6   38 1
   8    7    8 ar
   9    7   36 1
  10    8    9 ar
  11    8   11 ar
  12    9   10 ar
  13    9   14 ar
  14   10   33 1
  15   11   12 ar
  16   11   25 1
  17   12   13 ar
  18   12   39 1
  19   13   14 ar
  20   13   15 1
  21   15   16 am
  22   15   17 2
  23   16   18 1
  24   16   40 1
  25   18   19 1
  26   18   23 1
  27   18   41 1
  28   19   20 1
  29   19   24 1
  30   19   42 1
  31   20   21 1
  32   20   43 1
  33   20   44 1
  34   21   22 1
  35   21   45 1
  36   21   46 1
  37   22   23 1
  38   22   47 1
  39   22   48 1
  40   23   49 1
  41   23   50 1
  42   24   51 1
  43   25   26 1
  44   25   52 1
  45   25   53 1
  46   26   27 1
  47   26   31 1
  48   27   28 1
  49   27   54 1
  50   27   55 1
  51   28   29 1
  52   28   56 1
  53   28   57 1
  54   29   30 1
  55   29   32 1
  56   29   34 1
  57   30   31 1
  58   30   58 1
  59   30   59 1
  60   31   60 1
  61   31   61 1
  62   34   35 3

#	End of record

