#	Name: ASD01941024
#	Creating user name:	WinNT
#	Creation time:	15. 06. 2019 20:13

#	Modifying user name:	WinNT
#	Modification time:	15. 06. 2019 20:13

#	Program:	/corina/corina34_cracker 3.40 0067  02.08.2006

@<TRIPOS>MOLECULE
ASD01941024
  51   55    0    0    0
SMALL
NO_CHARGES


@<TRIPOS>ATOM
   1 N1            -0.4378     2.1318     0.6173 N.am    
   2 C2            -0.1747     0.8260     0.7898 C.2     
   3 N3            -1.0623    -0.1384     0.4942 N.am    
   4 C4            -2.3004     0.1735    -0.0065 C.2     
   5 C5            -2.6247     1.5163    -0.2049 C.2     
   6 C6            -1.6330     2.5386     0.1339 C.2     
   7 N7            -3.2049    -0.7927    -0.3090 N.am    
   8 C8            -4.4188    -0.4918    -0.8001 C.2     
   9 C9            -4.8156     0.8281    -1.0257 C.2     
  10 C10           -3.9393     1.8641    -0.7368 C.2     
  11 C11           -0.7181    -1.4811     0.6999 C.ar    
  12 C12            0.1001    -2.1368    -0.2103 C.ar    
  13 C13            0.4379    -3.4601    -0.0045 C.ar    
  14 C14           -0.0378    -4.1319     1.1066 C.ar    
  15 C15           -0.8528    -3.4816     2.0149 C.ar    
  16 C16           -1.1899    -2.1568     1.8174 C.ar    
  17 C17           -2.8485    -2.1975    -0.0953 C.3     
  18 O18           -5.1962    -1.3972    -1.0566 O.2     
  19 N19           -4.2978     3.1810    -0.9472 N.pl3   
  20 C20           -3.6186     3.9457    -1.8953 C.ar    
  21 C21           -2.6782     3.3460    -2.7257 C.ar    
  22 C22           -2.0052     4.0979    -3.6633 C.ar    
  23 C23           -2.2677     5.4655    -3.7804 C.ar    
  24 C24           -3.2136     6.0670    -2.9445 C.ar    
  25 C25           -3.8878     5.3081    -2.0122 C.ar    
  26 O26            0.9111     0.5036     1.2311 O.2     
  27 C27            0.5802     3.1272     0.9626 C.3     
  28 O28           -1.8745     3.7210    -0.0235 O.2     
  29 C29            1.8820     3.1144     0.1590 C.3     
  30 C30            0.8610     4.2333    -0.0565 C.3     
  31 F31           -4.8021     5.8874    -1.2037 F       
  32 C32           -1.5690     6.2494    -4.7540 C.1     
  33 N33           -1.0147     6.8712    -5.5264 N.1     
  34 H34           -5.7976     1.0408    -1.4217 H       
  35 H35            0.4716    -1.6127    -1.0784 H       
  36 H36            1.0740    -3.9708    -0.7123 H       
  37 H37            0.2275    -5.1668     1.2651 H       
  38 H38           -1.2230    -4.0090     2.8815 H       
  39 H39           -1.8262    -1.6493     2.5273 H       
  40 H40           -3.0132    -2.4592     0.9500 H       
  41 H41           -3.4685    -2.8303    -0.7303 H       
  42 H42           -1.7986    -2.3483    -0.3465 H       
  43 H43           -5.0221     3.5742    -0.4356 H       
  44 H44           -2.4749     2.2892    -2.6352 H       
  45 H45           -1.2749     3.6308    -4.3074 H       
  46 H46           -3.4186     7.1237    -3.0321 H       
  47 H47            0.6434     3.3879     2.0191 H       
  48 H48            2.8017     3.3671     0.6867 H       
  49 H49            1.9812     2.3654    -0.6267 H       
  50 H50            0.2884     4.2204    -0.9839 H       
  51 H51            1.1090     5.2221     0.3295 H       
@<TRIPOS>BOND
   1    1    2 am
   2    1   27 1
   3    1    6 am
   4    2    3 am
   5    2   26 2
   6    3    4 1
   7    3   11 1
   8    4    5 2
   9    4    7 1
  10    5    6 1
  11    5   10 1
  12    6   28 2
  13    7    8 am
  14    7   17 1
  15    8    9 1
  16    8   18 2
  17    9   10 2
  18    9   34 1
  19   10   19 1
  20   11   12 ar
  21   11   16 ar
  22   12   13 ar
  23   12   35 1
  24   13   14 ar
  25   13   36 1
  26   14   15 ar
  27   14   37 1
  28   15   16 ar
  29   15   38 1
  30   16   39 1
  31   17   40 1
  32   17   41 1
  33   17   42 1
  34   19   20 1
  35   19   43 1
  36   20   21 ar
  37   20   25 ar
  38   21   22 ar
  39   21   44 1
  40   22   23 ar
  41   22   45 1
  42   23   24 ar
  43   23   32 1
  44   24   25 ar
  45   24   46 1
  46   25   31 1
  47   27   29 1
  48   27   30 1
  49   27   47 1
  50   29   30 1
  51   29   48 1
  52   29   49 1
  53   30   50 1
  54   30   51 1
  55   32   33 3

#	End of record

