#	Name: ASD01911999
#	Creating user name:	WinNT
#	Creation time:	15. 06. 2019 19:58

#	Modifying user name:	WinNT
#	Modification time:	15. 06. 2019 19:58

#	Program:	/corina/corina34_cracker 3.40 0067  02.08.2006

@<TRIPOS>MOLECULE
ASD01911999
  39   41    0    0    0
SMALL
NO_CHARGES


@<TRIPOS>ATOM
   1 C1            -1.4287     1.2128     1.7195 C.ar    
   2 C2            -1.3522    -0.1703     1.5733 C.ar    
   3 C3            -1.5144    -0.9629     2.7071 C.ar    
   4 N4            -1.7335    -0.3778     3.8728 N.ar    
   5 C5            -1.7990     0.9350     3.9694 C.ar    
   6 N6            -1.6509     1.7195     2.9207 N.ar    
   7 N7            -1.1193    -0.7475     0.3218 N.pl3   
   8 C8            -1.0194    -2.1356     0.2006 C.ar    
   9 C9             0.2998    -4.0946    -0.2382 C.ar    
  10 C10           -0.8153    -4.8908    -0.0424 C.ar    
  11 C11           -2.0379    -4.3107     0.2706 C.ar    
  12 C12           -2.1399    -2.9319     0.3921 C.ar    
  13 N13           -3.1642    -5.1157     0.4678 N.am    
  14 C14           -4.3845    -4.6656     0.1146 C.2     
  15 C15           -5.5858    -5.4722     0.4166 C.ar    
  16 O16           -4.4972    -3.5961    -0.4524 O.2     
  17 C17           -6.8509    -5.0088     0.0521 C.ar    
  18 C18            0.2006    -2.7199    -0.1175 C.ar    
  19 C19           -0.9799     0.1032    -0.8627 C.3     
  20 C20           -7.9686    -5.7662     0.3367 C.ar    
  21 C21           -7.8380    -6.9827     0.9819 C.ar    
  22 C22           -6.5859    -7.4487     1.3469 C.ar    
  23 C23           -5.4592    -6.7033     1.0624 C.ar    
  24 Cl24          -6.4323    -8.9762     2.1574 Cl      
  25 F25            1.4880    -4.6610    -0.5425 F       
  26 H26           -1.3039     1.8619     0.8653 H       
  27 H27           -1.4623    -2.0393     2.6353 H       
  28 H28           -1.9796     1.3810     4.9363 H       
  29 H29           -0.7347    -5.9639    -0.1330 H       
  30 H30           -3.0898    -2.4794     0.6357 H       
  31 H31           -3.0672    -5.9981     0.8587 H       
  32 H32           -6.9548    -4.0590    -0.4514 H       
  33 H33            1.0719    -2.1004    -0.2710 H       
  34 H34            0.0678     0.3729    -0.9950 H       
  35 H35           -1.3296    -0.4380    -1.7419 H       
  36 H36           -1.5743     1.0075    -0.7325 H       
  37 H37           -8.9479    -5.4081     0.0553 H       
  38 H38           -8.7161    -7.5715     1.2022 H       
  39 H39           -4.4831    -7.0674     1.3470 H       
@<TRIPOS>BOND
   1    1    2 ar
   2    1    6 ar
   3    1   26 1
   4    2    3 ar
   5    2    7 1
   6    3    4 ar
   7    3   27 1
   8    4    5 ar
   9    5    6 ar
  10    5   28 1
  11    7    8 1
  12    7   19 1
  13    8   18 ar
  14    8   12 ar
  15    9   10 ar
  16    9   25 1
  17    9   18 ar
  18   10   11 ar
  19   10   29 1
  20   11   12 ar
  21   11   13 1
  22   12   30 1
  23   13   14 am
  24   13   31 1
  25   14   15 1
  26   14   16 2
  27   15   17 ar
  28   15   23 ar
  29   17   20 ar
  30   17   32 1
  31   18   33 1
  32   19   34 1
  33   19   35 1
  34   19   36 1
  35   20   21 ar
  36   20   37 1
  37   21   22 ar
  38   21   38 1
  39   22   23 ar
  40   22   24 1
  41   23   39 1

#	End of record

