#	Name: ASD03910071
#	Creating user name:	WinNT
#	Creation time:	15. 06. 2019 20:47

#	Modifying user name:	WinNT
#	Modification time:	15. 06. 2019 20:47

#	Program:	/corina/corina34_cracker 3.40 0067  02.08.2006

@<TRIPOS>MOLECULE
ASD03910071
  89   92    0    0    0
SMALL
NO_CHARGES


@<TRIPOS>ATOM
   1 C1             0.5280    16.2949    -5.1774 C.ar    
   2 C2             0.9769    16.4735    -6.4730 C.ar    
   3 C3             1.5844    15.4302    -7.1474 C.ar    
   4 C4             1.7441    14.2059    -6.5285 C.ar    
   5 C5             1.2944    14.0233    -5.2274 C.ar    
   6 C6             0.6903    15.0749    -4.5507 C.ar    
   7 N7             1.4547    12.7842    -4.5975 N.am    
   8 C8             0.5288    12.3495    -3.7199 C.2     
   9 O9            -0.3987    13.0677    -3.4115 O.2     
  10 C10           -0.5060    10.7330    -2.1797 C.ar    
  11 C11           -1.6803    10.1767    -2.6522 C.ar    
  12 C12           -2.7356     9.9520    -1.7894 C.ar    
  13 C13           -2.6163    10.2851    -0.4480 C.ar    
  14 C14           -1.4369    10.8431     0.0236 C.ar    
  15 C15           -0.3846    11.0658    -0.8432 C.ar    
  16 O16           -3.6531    10.0654     0.4027 O.3     
  17 C17           -3.4392    10.3780     1.7806 C.3     
  18 C18           -2.2762     9.5828     2.3154 C.2     
  19 C19           -0.1334    17.4346    -4.4462 C.3     
  20 C20            2.0722    15.6292    -8.5593 C.3     
  21 O21           -1.5156    10.0844     3.1160 O.2     
  22 N22           -2.0811     8.3143     1.9040 N.am    
  23 C23            0.6458    10.9713    -3.1219 C.3     
  24 C24           -0.8947     7.5759     2.3437 C.3     
  25 C25           -1.1637     6.9463     3.6862 C.2     
  26 O26           -2.2365     7.0987     4.2208 O.2     
  27 O27           -0.2116     6.2162     4.2879 O.3     
  28 C28           -0.5673     6.4830     1.3242 C.3     
  29 C29           -3.1676    11.8838     1.9435 C.3     
  30 C30           -4.2845    12.4372     2.8524 C.3     
  31 C31           -4.7718    11.2023     3.6503 C.3     
  32 C32           -4.7112    10.0678     2.5964 C.3     
  33 C33           -0.1728     7.1280    -0.0059 C.3     
  34 C34            0.1545     6.0350    -1.0254 C.3     
  35 C35            0.5490     6.6800    -2.3555 C.3     
  36 N36            0.8625     5.6335    -3.3317 N.am    
  37 C37            1.2376     5.9688    -4.5820 C.2     
  38 O38            1.5256     5.0071    -5.4791 O.3     
  39 O39            1.3158     7.1390    -4.8997 O.2     
  40 C40            1.9226     5.4414    -6.8066 C.3     
  41 C41            2.2032     4.2360    -7.6665 C.ar    
  42 C42            1.1867     3.6652    -8.4093 C.ar    
  43 C43            1.4440     2.5595    -9.1980 C.ar    
  44 C44            2.7180     2.0249    -9.2444 C.ar    
  45 C45            3.7347     2.5963    -8.5023 C.ar    
  46 C46            3.4783     3.7046    -7.7169 C.ar    
  47 H47            0.8526    17.4297    -6.9594 H       
  48 H48            2.2180    13.3913    -7.0560 H       
  49 H49            0.3397    14.9362    -3.5387 H       
  50 H50            2.2322    12.2380    -4.7926 H       
  51 H51           -1.7728     9.9180    -3.6966 H       
  52 H52           -3.6528     9.5178    -2.1590 H       
  53 H53           -1.3417    11.1035     1.0674 H       
  54 H54            0.5337    11.5002    -0.4766 H       
  55 H55           -1.2078    17.4084    -4.6284 H       
  56 H56            0.0562    17.3392    -3.3770 H       
  57 H57            0.2728    18.3806    -4.8042 H       
  58 H58            3.1047    15.9782    -8.5412 H       
  59 H59            2.0176    14.6839    -9.0992 H       
  60 H60            1.4472    16.3695    -9.0587 H       
  61 H61           -2.7263     7.8902     1.3169 H       
  62 H62            0.6242    10.2268    -3.9177 H       
  63 H63            1.5852    10.8911    -2.5748 H       
  64 H64           -0.0505     8.2605     2.4261 H       
  65 H65           -0.4307     5.8323     5.1480 H       
  66 H66            0.2601     5.8774     1.6939 H       
  67 H67           -1.4426     5.8506     1.1759 H       
  68 H68           -2.1950    12.0394     2.4101 H       
  69 H69           -3.1990    12.3761     0.9715 H       
  70 H70           -3.8865    13.1948     3.5275 H       
  71 H71           -5.0962    12.8483     2.2522 H       
  72 H72           -4.1011    10.9912     4.4831 H       
  73 H73           -5.7929    11.3484     4.0026 H       
  74 H74           -5.5918    10.0958     1.9546 H       
  75 H75           -4.6250     9.0973     3.0852 H       
  76 H76           -1.0002     7.7336    -0.3756 H       
  77 H77            0.7025     7.7604     0.1424 H       
  78 H78            0.9819     5.4294    -0.6557 H       
  79 H79           -0.7208     5.4026    -1.1737 H       
  80 H80           -0.2784     7.2856    -2.7252 H       
  81 H81            1.4243     7.3124    -2.2072 H       
  82 H82            0.8000     4.6993    -3.0781 H       
  83 H83            1.1188     6.0269    -7.2528 H       
  84 H84            2.8215     6.0537    -6.7348 H       
  85 H85            0.1913     4.0828    -8.3731 H       
  86 H86            0.6497     2.1131    -9.7778 H       
  87 H87            2.9189     1.1607    -9.8601 H       
  88 H88            4.7299     2.1785    -8.5382 H       
  89 H89            4.2727     4.1511    -7.1371 H       
@<TRIPOS>BOND
   1    1    2 ar
   2    1   19 1
   3    1    6 ar
   4    2    3 ar
   5    2   47 1
   6    3    4 ar
   7    3   20 1
   8    4    5 ar
   9    4   48 1
  10    5    6 ar
  11    5    7 1
  12    6   49 1
  13    7    8 am
  14    7   50 1
  15    8    9 2
  16    8   23 1
  17   10   11 ar
  18   10   15 ar
  19   10   23 1
  20   11   12 ar
  21   11   51 1
  22   12   13 ar
  23   12   52 1
  24   13   14 ar
  25   13   16 1
  26   14   15 ar
  27   14   53 1
  28   15   54 1
  29   16   17 1
  30   17   18 1
  31   17   29 1
  32   17   32 1
  33   18   21 2
  34   18   22 am
  35   19   55 1
  36   19   56 1
  37   19   57 1
  38   20   58 1
  39   20   59 1
  40   20   60 1
  41   22   24 1
  42   22   61 1
  43   23   62 1
  44   23   63 1
  45   24   25 1
  46   24   28 1
  47   24   64 1
  48   25   26 2
  49   25   27 1
  50   27   65 1
  51   28   33 1
  52   28   66 1
  53   28   67 1
  54   29   30 1
  55   29   68 1
  56   29   69 1
  57   30   31 1
  58   30   70 1
  59   30   71 1
  60   31   32 1
  61   31   72 1
  62   31   73 1
  63   32   74 1
  64   32   75 1
  65   33   34 1
  66   33   76 1
  67   33   77 1
  68   34   35 1
  69   34   78 1
  70   34   79 1
  71   35   36 1
  72   35   80 1
  73   35   81 1
  74   36   37 am
  75   36   82 1
  76   37   38 1
  77   37   39 2
  78   38   40 1
  79   40   41 1
  80   40   83 1
  81   40   84 1
  82   41   42 ar
  83   41   46 ar
  84   42   43 ar
  85   42   85 1
  86   43   44 ar
  87   43   86 1
  88   44   45 ar
  89   44   87 1
  90   45   46 ar
  91   45   88 1
  92   46   89 1

#	End of record

