#	Name: ASD00170323
#	Creating user name:	WinNT
#	Creation time:	15. 06. 2019 18:31

#	Modifying user name:	WinNT
#	Modification time:	15. 06. 2019 18:31

#	Program:	/corina/corina34_cracker 3.40 0067  02.08.2006

@<TRIPOS>MOLECULE
ASD00170323
  64   66    0    0    0
SMALL
NO_CHARGES


@<TRIPOS>ATOM
   1 C1            -0.0185     1.5142     0.0104 C.3     
   2 C2             0.0021    -0.0041     0.0020 C.2     
   3 C3             1.0978    -0.7374    -0.2186 C.2     
   4 C4             2.4731    -0.1463    -0.4837 C.3     
   5 C5             2.3175     1.3141    -0.9146 C.3     
   6 N6             1.3770     1.9799    -0.0005 N.am    
   7 C7             0.8239    -2.1646    -0.1743 C.2     
   8 C8            -0.4879    -2.4571     0.0868 C.2     
   9 S9            -1.3955    -1.0294     0.2779 S.3     
  10 C10            1.8482    -3.1865    -0.3873 C.2     
  11 O11            2.4815    -3.6193     0.5571 O.2     
  12 O12            2.0908    -3.6494    -1.6311 O.3     
  13 C13            1.7807     2.9851     0.8015 C.2     
  14 C14            0.7968     3.6508     1.7287 C.3     
  15 C15           -0.3402     4.2653     0.9098 C.3     
  16 O16            2.9359     3.3538     0.7770 O.2     
  17 C17           -1.3854     4.8233     1.8411 C.ar    
  18 C18           -1.2979     6.1337     2.2725 C.ar    
  19 C19           -2.2565     6.6456     3.1268 C.ar    
  20 C20           -3.3029     5.8472     3.5494 C.ar    
  21 C21           -3.3908     4.5370     3.1174 C.ar    
  22 C22           -2.4346     4.0265     2.2596 C.ar    
  23 N23            1.4764     4.7037     2.4875 N.am    
  24 C24            0.9945     5.0887     3.6859 C.2     
  25 O25           -0.0035     4.5624     4.1369 O.2     
  26 O26            1.6191     6.0563     4.3833 O.3     
  27 C27            1.0443     6.4199     5.6661 C.3     
  28 C28            1.0298     5.1958     6.5839 C.3     
  29 C29            1.8843     7.5271     6.3059 C.3     
  30 C30           -0.3870     6.9200     5.4604 C.3     
  31 N31           -1.0040    -3.7348     0.1819 N.pl3   
  32 C32            3.1050    -4.6471    -1.7657 C.3     
  33 C33            3.2365    -5.0454    -3.2370 C.3     
  34 H34           -0.5376     1.8816    -0.8749 H       
  35 H35           -0.5206     1.8720     0.9093 H       
  36 H36            3.0724    -0.1960     0.4254 H       
  37 H37            2.9650    -0.7096    -1.2767 H       
  38 H38            3.2855     1.8133    -0.8702 H       
  39 H39            1.9291     1.3555    -1.9322 H       
  40 H40            0.3895     2.9113     2.4181 H       
  41 H41            0.0541     5.0662     0.2844 H       
  42 H42           -0.7886     3.4984     0.2782 H       
  43 H43           -0.4804     6.7575     1.9423 H       
  44 H44           -2.1878     7.6692     3.4644 H       
  45 H45           -4.0515     6.2469     4.2175 H       
  46 H46           -4.2081     3.9132     3.4478 H       
  47 H47           -2.5053     3.0040     1.9191 H       
  48 H48            2.2731     5.1238     2.1275 H       
  49 H49            2.0495     4.8396     6.7305 H       
  50 H50            0.5983     5.4688     7.5469 H       
  51 H51            0.4314     4.4070     6.1281 H       
  52 H52            1.8946     8.3992     5.6521 H       
  53 H53            1.4528     7.8001     7.2690 H       
  54 H54            2.9040     7.1709     6.4525 H       
  55 H55           -0.9855     6.1312     5.0046 H       
  56 H56           -0.8185     7.1929     6.4234 H       
  57 H57           -0.3767     7.7921     4.8066 H       
  58 H58           -0.4237    -4.5025     0.0606 H       
  59 H59           -1.9468    -3.8643     0.3700 H       
  60 H60            4.0556    -4.2491    -1.4107 H       
  61 H61            2.8343    -5.5223    -1.1751 H       
  62 H62            2.2858    -5.4434    -3.5920 H       
  63 H63            3.5072    -4.1702    -3.8276 H       
  64 H64            4.0100    -5.8064    -3.3397 H       
@<TRIPOS>BOND
   1    1    2 1
   2    1    6 1
   3    1   34 1
   4    1   35 1
   5    2    3 2
   6    2    9 1
   7    3    4 1
   8    3    7 1
   9    4    5 1
  10    4   36 1
  11    4   37 1
  12    5    6 1
  13    5   38 1
  14    5   39 1
  15    6   13 am
  16    7    8 2
  17    7   10 1
  18    8    9 1
  19    8   31 1
  20   10   11 2
  21   10   12 1
  22   12   32 1
  23   13   14 1
  24   13   16 2
  25   14   15 1
  26   14   23 1
  27   14   40 1
  28   15   17 1
  29   15   41 1
  30   15   42 1
  31   17   18 ar
  32   17   22 ar
  33   18   19 ar
  34   18   43 1
  35   19   20 ar
  36   19   44 1
  37   20   21 ar
  38   20   45 1
  39   21   22 ar
  40   21   46 1
  41   22   47 1
  42   23   24 am
  43   23   48 1
  44   24   25 2
  45   24   26 1
  46   26   27 1
  47   27   28 1
  48   27   30 1
  49   27   29 1
  50   28   49 1
  51   28   50 1
  52   28   51 1
  53   29   52 1
  54   29   53 1
  55   29   54 1
  56   30   55 1
  57   30   56 1
  58   30   57 1
  59   31   58 1
  60   31   59 1
  61   32   33 1
  62   32   60 1
  63   32   61 1
  64   33   62 1
  65   33   63 1
  66   33   64 1

#	End of record

