#	Name: ASD01816747
#	Creating user name:	WinNT
#	Creation time:	15. 06. 2019 19:35

#	Modifying user name:	WinNT
#	Modification time:	15. 06. 2019 19:35

#	Program:	/corina/corina34_cracker 3.40 0067  02.08.2006

@<TRIPOS>MOLECULE
ASD01816747
  62   66    0    0    0
SMALL
NO_CHARGES


@<TRIPOS>ATOM
   1 C1            -0.0155     1.3878     0.0079 C.2     
   2 C2             0.0057    -0.0135     0.0001 C.2     
   3 C3             1.2031    -0.6669    -0.0145 C.2     
   4 C4             2.3953     0.0765    -0.0215 C.2     
   5 N5             2.3451     1.4441    -0.0132 N.am    
   6 C6             1.1423     2.0861     0.0010 C.2     
   7 C7             3.6272    -0.5920    -0.0364 C.2     
   8 C8             4.7911     0.1214    -0.0433 C.2     
   9 C9             4.7351     1.5266    -0.0352 C.2     
  10 C10            3.4814     2.1697    -0.0199 C.2     
  11 C11            3.6668    -2.0985    -0.0444 C.3     
  12 O12            3.4240     3.3879    -0.0128 O.2     
  13 C13            5.9710     2.3159    -0.0418 C.2     
  14 N14            6.6587     2.5007     1.1025 N.am    
  15 O15            6.3758     2.8042    -1.0806 O.2     
  16 N16            3.7874    -2.5778    -1.4277 N.3     
  17 C17            4.0665    -4.0202    -1.4628 C.3     
  18 C18            4.1058    -4.4943    -2.9175 C.3     
  19 N19            5.1370    -3.7433    -3.6471 N.3     
  20 C20            4.8578    -2.3009    -3.6120 C.3     
  21 C21            4.8186    -1.8269    -2.1573 C.3     
  22 C22            5.2512    -4.1975    -4.9578 C.ar    
  23 C23            6.1768    -3.6127    -5.8171 C.ar    
  24 C24            6.2924    -4.0594    -7.1139 C.ar    
  25 C25            5.4790    -5.1022    -7.5675 C.ar    
  26 C26            4.5506    -5.6876    -6.7015 C.ar    
  27 C27            4.4436    -5.2393    -5.4045 C.ar    
  28 C28            7.9564     3.1929     1.1000 C.3     
  29 C29            7.9193     4.3005     2.1584 C.3     
  30 N30            7.5248     3.7250     3.4512 N.3     
  31 C31            6.1662     3.1692     3.3947 C.3     
  32 C32            6.1285     2.0207     2.3878 C.3     
  33 C33            5.5963    -5.5691    -8.9161 C.1     
  34 N34            5.6893    -5.9396    -9.9860 N.1     
  35 H35           -0.9599     1.9117     0.0150 H       
  36 H36           -0.9188    -0.5718     0.0059 H       
  37 H37            1.2344    -1.7464    -0.0204 H       
  38 H38            1.1140     3.1657     0.0074 H       
  39 H39            5.7436    -0.3874    -0.0544 H       
  40 H40            4.5234    -2.4425     0.5354 H       
  41 H41            2.7494    -2.4884     0.3966 H       
  42 H42            5.0292    -4.2159    -0.9905 H       
  43 H43            3.2827    -4.5555    -0.9269 H       
  44 H44            4.3413    -5.5581    -2.9471 H       
  45 H45            3.1346    -4.3235    -3.3819 H       
  46 H46            5.6417    -1.7657    -4.1479 H       
  47 H47            3.8951    -2.1052    -4.0843 H       
  48 H48            4.5830    -0.7630    -2.1277 H       
  49 H49            5.7898    -1.9976    -1.6929 H       
  50 H50            6.8048    -2.8072    -5.4660 H       
  51 H51            7.0104    -3.6047    -7.7804 H       
  52 H52            3.9205    -6.4931    -7.0488 H       
  53 H53            3.7269    -5.6913    -4.7349 H       
  54 H54            8.7497     2.4846     1.3389 H       
  55 H55            8.1360     3.6307     0.1181 H       
  56 H56            8.9076     4.7516     2.2476 H       
  57 H57            7.1969     5.0615     1.8634 H       
  58 H58            8.1883     3.0279     3.7542 H       
  59 H59            5.8830     2.8000     4.3803 H       
  60 H60            5.4682     3.9460     3.0824 H       
  61 H61            5.1009     1.6812     2.2579 H       
  62 H62            6.7463     1.1979     2.7476 H       
@<TRIPOS>BOND
   1    1    2 1
   2    1    6 2
   3    1   35 1
   4    2    3 2
   5    2   36 1
   6    3    4 1
   7    3   37 1
   8    4    5 1
   9    4    7 2
  10    5    6 1
  11    5   10 am
  12    6   38 1
  13    7    8 1
  14    7   11 1
  15    8    9 2
  16    8   39 1
  17    9   10 1
  18    9   13 1
  19   10   12 2
  20   11   16 1
  21   11   40 1
  22   11   41 1
  23   13   15 2
  24   13   14 am
  25   14   28 1
  26   14   32 1
  27   16   17 1
  28   16   21 1
  29   17   18 1
  30   17   42 1
  31   17   43 1
  32   18   19 1
  33   18   44 1
  34   18   45 1
  35   19   20 1
  36   19   22 1
  37   20   21 1
  38   20   46 1
  39   20   47 1
  40   21   48 1
  41   21   49 1
  42   22   23 ar
  43   22   27 ar
  44   23   24 ar
  45   23   50 1
  46   24   25 ar
  47   24   51 1
  48   25   26 ar
  49   25   33 1
  50   26   27 ar
  51   26   52 1
  52   27   53 1
  53   28   29 1
  54   28   54 1
  55   28   55 1
  56   29   30 1
  57   29   56 1
  58   29   57 1
  59   30   31 1
  60   30   58 1
  61   31   32 1
  62   31   59 1
  63   31   60 1
  64   32   61 1
  65   32   62 1
  66   33   34 3

#	End of record

