#	Name: ASD01152492
#	Creating user name:	WinNT
#	Creation time:	15. 06. 2019 19:05

#	Modifying user name:	WinNT
#	Modification time:	15. 06. 2019 19:05

#	Program:	/corina/corina34_cracker 3.40 0067  02.08.2006

@<TRIPOS>MOLECULE
ASD01152492
  53   56    0    0    0
SMALL
NO_CHARGES


@<TRIPOS>ATOM
   1 C1             0.1107     1.1569    -0.6965 C.2     
   2 N2             0.0184    -0.1438    -0.6179 N.2     
   3 N3            -1.1208    -0.7663    -0.1081 N.am    
   4 C4            -2.2618    -0.0996     0.1332 C.2     
   5 C5            -2.3931     1.3532    -0.2595 C.3     
   6 C6            -1.0091     1.9734    -0.2041 C.2     
   7 C7            -2.9569     1.4574    -1.6780 C.3     
   8 O8            -0.8367     3.0970     0.2214 O.2     
   9 C9            -1.0736    -2.1392     0.1619 C.ar    
  10 O10           -3.1905    -0.6665     0.6685 O.2     
  11 C11           -3.2001     2.9055    -2.0168 C.2     
  12 C12           -0.0101    -2.6697     0.8787 C.ar    
  13 C13           -2.0943    -2.9704    -0.2825 C.ar    
  14 C14           -2.0494    -4.3253    -0.0164 C.ar    
  15 C15           -0.9885    -4.8585     0.6937 C.ar    
  16 C16            0.0336    -4.0301     1.1451 C.ar    
  17 C17           -2.2662     3.6119    -2.6829 C.2     
  18 C18           -4.4658     3.5573    -1.6260 C.2     
  19 C19           -4.5075     4.8857    -1.4233 C.2     
  20 C20           -3.2188     5.6177    -1.6344 C.3     
  21 C21           -2.6069     5.0366    -2.9457 C.3     
  22 C22           -3.3415     7.0900    -2.0565 C.3     
  23 C23           -2.0315     7.2746    -2.8744 C.3     
  24 O24           -1.6015     5.9571    -3.3034 O.3     
  25 F25           -0.9475    -6.1838     0.9528 F       
  26 N26            1.1054    -4.5690     1.8677 N.am    
  27 C27            1.7698    -3.8055     2.7576 C.2     
  28 O28            1.5003    -2.6279     2.8670 O.2     
  29 C29            2.8477    -4.4147     3.6167 C.3     
  30 O30            1.2204     1.7434    -1.2172 O.3     
  31 C31            2.2629     0.8753    -1.6663 C.3     
  32 H32           -3.0536     1.8662     0.4395 H       
  33 H33           -2.2432     1.0339    -2.3847 H       
  34 H34           -3.8963     0.9077    -1.7370 H       
  35 H35            0.7822    -2.0243     1.2282 H       
  36 H36           -2.9241    -2.5569    -0.8365 H       
  37 H37           -2.8440    -4.9694    -0.3629 H       
  38 H38           -1.3329     3.1738    -3.0043 H       
  39 H39           -5.3607     2.9654    -1.5030 H       
  40 H40           -5.4138     5.3929    -1.1271 H       
  41 H41           -2.5482     5.4901    -0.7847 H       
  42 H42           -3.3751     5.0692    -3.7183 H       
  43 H43           -4.2203     7.2472    -2.6819 H       
  44 H44           -3.3576     7.7476    -1.1873 H       
  45 H45           -2.2239     7.8998    -3.7462 H       
  46 H46           -1.2655     7.7328    -2.2489 H       
  47 H47            1.3695    -5.4918     1.7277 H       
  48 H48            2.9468    -5.4738     3.3786 H       
  49 H49            3.7941    -3.9091     3.4252 H       
  50 H50            2.5816    -4.3020     4.6677 H       
  51 H51            1.8800     0.2238    -2.4518 H       
  52 H52            3.0878     1.4705    -2.0579 H       
  53 H53            2.6160     0.2696    -0.8317 H       
@<TRIPOS>BOND
   1    1    2 2
   2    1   30 1
   3    1    6 1
   4    2    3 1
   5    3    4 am
   6    3    9 1
   7    4    5 1
   8    4   10 2
   9    5    6 1
  10    5    7 1
  11    5   32 1
  12    6    8 2
  13    7   11 1
  14    7   33 1
  15    7   34 1
  16    9   12 ar
  17    9   13 ar
  18   11   17 2
  19   11   18 1
  20   12   16 ar
  21   12   35 1
  22   13   14 ar
  23   13   36 1
  24   14   15 ar
  25   14   37 1
  26   15   16 ar
  27   15   25 1
  28   16   26 1
  29   17   21 1
  30   17   38 1
  31   18   19 2
  32   18   39 1
  33   19   20 1
  34   19   40 1
  35   20   21 1
  36   20   22 1
  37   20   41 1
  38   21   24 1
  39   21   42 1
  40   22   23 1
  41   22   43 1
  42   22   44 1
  43   23   24 1
  44   23   45 1
  45   23   46 1
  46   26   27 am
  47   26   47 1
  48   27   28 2
  49   27   29 1
  50   29   48 1
  51   29   49 1
  52   29   50 1
  53   30   31 1
  54   31   51 1
  55   31   52 1
  56   31   53 1

#	End of record

