#	Name: ASD01903040
#	Creating user name:	WinNT
#	Creation time:	15. 06. 2019 19:54

#	Modifying user name:	WinNT
#	Modification time:	15. 06. 2019 19:54

#	Program:	/corina/corina34_cracker 3.40 0067  02.08.2006

@<TRIPOS>MOLECULE
ASD01903040
  38   40    0    0    0
SMALL
NO_CHARGES


@<TRIPOS>ATOM
   1 C1             0.1666     1.3027    -0.2704 C.ar    
   2 C2             0.2861    -0.0731    -0.2892 C.ar    
   3 C3             1.5197    -0.6666    -0.0470 C.ar    
   4 C4             2.6308     0.1238     0.2137 C.ar    
   5 C5             2.5108     1.4996     0.2324 C.ar    
   6 C6             1.2789     2.0928    -0.0095 C.ar    
   7 N7             1.1579     3.4879     0.0092 N.am    
   8 C8             2.1666     4.2579    -0.4448 C.2     
   9 O9             3.2132     3.7462    -0.7914 O.2     
  10 C10            1.9997     5.7277    -0.5214 C.ar    
  11 N11            0.8545     6.2807    -0.1416 N.ar    
  12 C12            0.6655     7.5813    -0.1938 C.ar    
  13 C13            1.6628     8.4275    -0.6507 C.ar    
  14 C14            2.8751     7.8919    -1.0575 C.ar    
  15 C15            3.0482     6.5188    -0.9863 C.ar    
  16 Cl16          -1.1038    -1.0610    -0.6147 Cl      
  17 N17            1.6413    -2.0608    -0.0655 N.3     
  18 C18            0.9005    -2.6691     1.0491 C.3     
  19 C19            1.0106    -4.1933     0.9565 C.3     
  20 O20            2.3910    -4.5673     0.9558 O.3     
  21 C21            3.1425    -3.9930    -0.1170 C.3     
  22 C22            3.0540    -2.4668    -0.0352 C.3     
  23 H23           -0.7906     1.7644    -0.4629 H       
  24 H24            3.5891    -0.3371     0.4022 H       
  25 H25            3.3753     2.1142     0.4356 H       
  26 H26            0.3482     3.9000     0.3488 H       
  27 H27           -0.2802     7.9952     0.1236 H       
  28 H28            1.4974     9.4940    -0.6900 H       
  29 H29            3.6681     8.5306    -1.4176 H       
  30 H30            3.9796     6.0675    -1.2949 H       
  31 H31            1.3232    -2.3304     1.9950 H       
  32 H32           -0.1478    -2.3758     0.9925 H       
  33 H33            0.5110    -4.6470     1.8125 H       
  34 H34            0.5399    -4.5369     0.0354 H       
  35 H35            4.1848    -4.3019    -0.0374 H       
  36 H36            2.7338    -4.3308    -1.0693 H       
  37 H37            3.5777    -2.0259    -0.8834 H       
  38 H38            3.5111    -2.1249     0.8934 H       
@<TRIPOS>BOND
   1    1    2 ar
   2    1    6 ar
   3    1   23 1
   4    2    3 ar
   5    2   16 1
   6    3    4 ar
   7    3   17 1
   8    4    5 ar
   9    4   24 1
  10    5    6 ar
  11    5   25 1
  12    6    7 1
  13    7    8 am
  14    7   26 1
  15    8    9 2
  16    8   10 1
  17   10   11 ar
  18   10   15 ar
  19   11   12 ar
  20   12   13 ar
  21   12   27 1
  22   13   14 ar
  23   13   28 1
  24   14   15 ar
  25   14   29 1
  26   15   30 1
  27   17   18 1
  28   17   22 1
  29   18   19 1
  30   18   31 1
  31   18   32 1
  32   19   20 1
  33   19   33 1
  34   19   34 1
  35   20   21 1
  36   21   22 1
  37   21   35 1
  38   21   36 1
  39   22   37 1
  40   22   38 1

#	End of record

