#	Name: ASD01912133
#	Creating user name:	WinNT
#	Creation time:	15. 06. 2019 19:59

#	Modifying user name:	WinNT
#	Modification time:	15. 06. 2019 19:59

#	Program:	/corina/corina34_cracker 3.40 0067  02.08.2006

@<TRIPOS>MOLECULE
ASD01912133
  46   49    0    0    0
SMALL
NO_CHARGES


@<TRIPOS>ATOM
   1 C1             0.0453     1.4285     0.2086 C.3     
   2 C2             0.0574    -0.0994     0.2949 C.3     
   3 C3            -1.3780    -0.6268     0.2345 C.3     
   4 C4            -2.1688    -0.0813     1.4278 C.3     
   5 N5            -2.0642     1.3842     1.4343 N.am    
   6 C6            -0.7294     1.9973     1.4015 C.3     
   7 C7            -4.5087     1.5226     1.4180 C.ar    
   8 C8            -3.1717     2.1515     1.4697 C.2     
   9 O9            -3.0712     3.3606     1.5441 O.2     
  10 C10            1.4607     1.9451     0.2356 C.2     
  11 O11            2.3532     1.7648     1.2143 O.3     
  12 N12            3.3992     2.3079     0.9276 N.2     
  13 C13            3.3001     2.8854    -0.2410 C.2     
  14 N14            2.0496     2.6501    -0.6980 N.2     
  15 C15            4.3638     3.6513    -0.9386 C.ar    
  16 C16            5.6111     3.8029    -0.3391 C.ar    
  17 C17            6.5937     4.5195    -1.0020 C.ar    
  18 C18            6.2946     5.0605    -2.2434 C.ar    
  19 C19            5.0334     4.8705    -2.7799 C.ar    
  20 N20            4.1193     4.1804    -2.1300 N.ar    
  21 C21           -4.8228     0.4717     2.2811 C.ar    
  22 C22           -6.0724    -0.1105     2.2280 C.ar    
  23 C23           -7.0134     0.3454     1.3218 C.ar    
  24 C24           -6.7084     1.3868     0.4635 C.ar    
  25 C25           -5.4643     1.9812     0.5098 C.ar    
  26 C26           -8.3762    -0.2956     1.2691 C.3     
  27 F27           -9.2391     0.3707     2.1458 F       
  28 F28           -8.8801    -0.2135    -0.0334 F       
  29 F29           -8.2746    -1.6391     1.6460 F       
  30 H30           -0.4368     1.7367    -0.7192 H       
  31 H31            0.6290    -0.5058    -0.5395 H       
  32 H32            0.5178    -0.4064     1.2340 H       
  33 H33           -1.8472    -0.2993    -0.6932 H       
  34 H34           -1.3673    -1.7161     0.2725 H       
  35 H35           -3.2152    -0.3726     1.3366 H       
  36 H36           -1.7555    -0.4813     2.3537 H       
  37 H37           -0.1987     1.7668     2.3253 H       
  38 H38           -0.8261     3.0776     1.2930 H       
  39 H39            5.8096     3.3682     0.6294 H       
  40 H40            7.5707     4.6542    -0.5618 H       
  41 H41            7.0385     5.6249    -2.7860 H       
  42 H42            4.7966     5.2906    -3.7463 H       
  43 H43           -4.0891     0.1147     2.9887 H       
  44 H44           -6.3166    -0.9240     2.8950 H       
  45 H45           -7.4472     1.7377    -0.2418 H       
  46 H46           -5.2275     2.7940    -0.1607 H       
@<TRIPOS>BOND
   1    1    2 1
   2    1   10 1
   3    1    6 1
   4    1   30 1
   5    2    3 1
   6    2   31 1
   7    2   32 1
   8    3    4 1
   9    3   33 1
  10    3   34 1
  11    4    5 1
  12    4   35 1
  13    4   36 1
  14    5    6 1
  15    5    8 am
  16    6   37 1
  17    6   38 1
  18    7    8 1
  19    7   21 ar
  20    7   25 ar
  21    8    9 2
  22   10   11 1
  23   10   14 2
  24   11   12 1
  25   12   13 2
  26   13   14 1
  27   13   15 1
  28   15   16 ar
  29   15   20 ar
  30   16   17 ar
  31   16   39 1
  32   17   18 ar
  33   17   40 1
  34   18   19 ar
  35   18   41 1
  36   19   20 ar
  37   19   42 1
  38   21   22 ar
  39   21   43 1
  40   22   23 ar
  41   22   44 1
  42   23   24 ar
  43   23   26 1
  44   24   25 ar
  45   24   45 1
  46   25   46 1
  47   26   27 1
  48   26   28 1
  49   26   29 1

#	End of record

