#	Name: ASD02508106
#	Creating user name:	WinNT
#	Creation time:	15. 06. 2019 20:23

#	Modifying user name:	WinNT
#	Modification time:	15. 06. 2019 20:23

#	Program:	/corina/corina34_cracker 3.40 0067  02.08.2006

@<TRIPOS>MOLECULE
ASD02508106
  36   38    0    0    0
SMALL
NO_CHARGES


@<TRIPOS>ATOM
   1 C1            -0.0170     1.3988     0.0097 C.ar    
   2 C2             0.0021    -0.0041     0.0020 C.ar    
   3 C3             1.2103     2.0632     0.0016 C.ar    
   4 C4             2.4081     1.3725    -0.0136 C.ar    
   5 C5             2.4055    -0.0151    -0.0210 C.ar    
   6 C6             1.1918    -0.6929    -0.0126 C.ar    
   7 N7            -1.1215     2.2356     0.0192 N.am    
   8 C8            -0.9230     3.5571     0.0255 C.2     
   9 S9             0.8327     3.7915     0.0145 S.3     
  10 N10            3.6114    -0.7244    -0.0368 N.am    
  11 S11            3.6721    -2.2677     0.5604 S.o2    
  12 C12            3.3155    -3.3587    -0.7764 C.2     
  13 S13            1.7103    -3.9181    -1.2281 S.3     
  14 O14           -1.7766     4.4249     0.0341 O.2     
  15 O15            5.0257    -2.5051     0.9219 O.2     
  16 O16            2.5910    -2.3869     1.4749 O.2     
  17 C17           -2.4784     1.6831     0.0217 C.3     
  18 C18            4.2210    -3.8822    -1.6043 C.2     
  19 C19            3.7047    -4.7142    -2.5828 C.2     
  20 C20            2.3797    -4.8647    -2.5508 C.2     
  21 C21           -2.9446     1.4825     1.4651 C.3     
  22 C22            4.8204    -0.1017    -0.5817 C.3     
  23 H23           -0.9298    -0.5499     0.0080 H       
  24 H24            3.3438     1.9119    -0.0200 H       
  25 H25            1.1834    -1.7729    -0.0183 H       
  26 H26           -3.1527     2.3733    -0.4853 H       
  27 H27           -2.4814     0.7248    -0.4976 H       
  28 H28            5.2769    -3.6725    -1.5179 H       
  29 H29            4.3272    -5.2028    -3.3176 H       
  30 H30            1.8056    -5.4735    -3.2335 H       
  31 H31           -2.2704     0.7923     1.9721 H       
  32 H32           -2.9416     2.4408     1.9844 H       
  33 H33           -3.9542     1.0714     1.4669 H       
  34 H34            5.3496     0.4221     0.2143 H       
  35 H35            5.4672    -0.8713    -1.0029 H       
  36 H36            4.5438     0.6074    -1.3619 H       
@<TRIPOS>BOND
   1    1    2 ar
   2    1    3 ar
   3    1    7 1
   4    2    6 ar
   5    2   23 1
   6    3    4 ar
   7    3    9 1
   8    4    5 ar
   9    4   24 1
  10    5    6 ar
  11    5   10 1
  12    6   25 1
  13    7    8 am
  14    7   17 1
  15    8    9 1
  16    8   14 2
  17   10   11 am
  18   10   22 1
  19   11   12 1
  20   11   15 2
  21   11   16 2
  22   12   13 1
  23   12   18 2
  24   13   20 1
  25   17   21 1
  26   17   26 1
  27   17   27 1
  28   18   19 1
  29   18   28 1
  30   19   20 2
  31   19   29 1
  32   20   30 1
  33   21   31 1
  34   21   32 1
  35   21   33 1
  36   22   34 1
  37   22   35 1
  38   22   36 1

#	End of record

