#	Name: ASD03430657
#	Creating user name:	WinNT
#	Creation time:	15. 06. 2019 20:41

#	Modifying user name:	WinNT
#	Modification time:	15. 06. 2019 20:41

#	Program:	/corina/corina34_cracker 3.40 0067  02.08.2006

@<TRIPOS>MOLECULE
ASD03430657
  32   36    0    0    0
SMALL
NO_CHARGES


@<TRIPOS>ATOM
   1 C1            -0.0167     1.3805     0.0096 C.ar    
   2 C2             0.0021    -0.0041     0.0020 C.ar    
   3 C3             1.2036    -0.6816    -0.0133 C.ar    
   4 C4             2.4093     0.0135    -0.0097 C.ar    
   5 C5             2.3873     1.4049    -0.0073 C.ar    
   6 C6             1.1840     2.0868     0.0020 C.ar    
   7 O7             3.4720    -0.8412     0.0045 O.3     
   8 C8             1.5520    -2.1452    -0.0495 C.3     
   9 C9             3.0391    -2.1444    -0.4305 C.3     
  10 C10            0.4270    -3.8654     0.9970 C.ar    
  11 C11            1.3121    -2.8243     1.2659 C.ar    
  12 C12            0.7230    -2.9035    -1.0462 C.2     
  13 N13            0.1022    -3.8848    -0.3618 N.am    
  14 O14            0.6302    -2.6771    -2.2341 O.2     
  15 C15            1.7722    -2.6091     2.5457 C.ar    
  16 C16            1.3576    -3.4304     3.5793 C.ar    
  17 C17            0.4798    -4.4677     3.3243 C.ar    
  18 C18            0.0145    -4.6875     2.0433 C.ar    
  19 O19           -1.0496     2.2736     0.0188 O.3     
  20 C20           -0.4708     3.5263     0.4299 C.3     
  21 O21            0.9024     3.4230     0.0053 O.3     
  22 Br22          -1.1871    -6.1086     1.7079 Br      
  23 H23           -0.9267    -0.5552     0.0085 H       
  24 H24            3.3161     1.9560    -0.0120 H       
  25 H25            3.1627    -2.2536    -1.5080 H       
  26 H26            3.5759    -2.9287     0.1032 H       
  27 H27           -0.5001    -4.5291    -0.7654 H       
  28 H28            2.4580    -1.7984     2.7430 H       
  29 H29            1.7191    -3.2618     4.5829 H       
  30 H30            0.1570    -5.1093     4.1309 H       
  31 H31           -0.9633     4.3589    -0.0724 H       
  32 H32           -0.5328     3.6399     1.5122 H       
@<TRIPOS>BOND
   1    1    2 ar
   2    1    6 ar
   3    1   19 1
   4    2    3 ar
   5    2   23 1
   6    3    4 ar
   7    3    8 1
   8    4    5 ar
   9    4    7 1
  10    5    6 ar
  11    5   24 1
  12    6   21 1
  13    7    9 1
  14    8    9 1
  15    8   11 1
  16    8   12 1
  17    9   25 1
  18    9   26 1
  19   10   11 ar
  20   10   13 1
  21   10   18 ar
  22   11   15 ar
  23   12   13 am
  24   12   14 2
  25   13   27 1
  26   15   16 ar
  27   15   28 1
  28   16   17 ar
  29   16   29 1
  30   17   18 ar
  31   17   30 1
  32   18   22 1
  33   19   20 1
  34   20   21 1
  35   20   31 1
  36   20   32 1

#	End of record

