#	Name: ASD01120263
#	Creating user name:	WinNT
#	Creation time:	15. 06. 2019 18:59

#	Modifying user name:	WinNT
#	Modification time:	15. 06. 2019 18:59

#	Program:	/corina/corina34_cracker 3.40 0067  02.08.2006

@<TRIPOS>MOLECULE
ASD01120263
  30   31    0    0    0
SMALL
NO_CHARGES


@<TRIPOS>ATOM
   1 C1            -0.0168     1.3848     0.0097 C.ar    
   2 C2             0.0021    -0.0041     0.0020 C.ar    
   3 C3             1.1961    -0.6899    -0.0126 C.ar    
   4 C4             2.3976     0.0127    -0.0203 C.ar    
   5 C5             2.3758     1.4216    -0.0130 C.ar    
   6 C6             1.1480     2.0958     0.0024 C.ar    
   7 N7             3.7156    -0.3779    -0.0353 N.pl3   
   8 C8             4.5141     0.7500    -0.0375 C.2     
   9 C9             3.7232     1.8556    -0.0241 C.2     
  10 C10            4.1959     3.2865    -0.0216 C.3     
  11 C11            4.3422     3.7778    -1.4632 C.3     
  12 C12            4.8150     5.2088    -1.4607 C.2     
  13 O13            5.0145     5.8517    -2.6220 O.3     
  14 O14            5.0145     5.7773    -0.4134 O.2     
  15 C15            5.9830     0.7536    -0.0521 C.2     
  16 O16            6.5882     1.8080    -0.0523 O.2     
  17 O17            6.6600    -0.4125    -0.0652 O.3     
  18 N18           -1.2739    -0.7543     0.0101 N.pl3   
  19 O19           -2.3334    -0.1537     0.0235 O.2     
  20 O20           -1.2643    -1.9723     0.0035 O.2     
  21 H21           -0.9621     1.9069     0.0169 H       
  22 H22            1.2003    -1.7699    -0.0177 H       
  23 H23            1.1233     3.1755     0.0077 H       
  24 H24            4.0329    -1.2946    -0.0427 H       
  25 H25            3.4698     3.9082     0.5022 H       
  26 H26            5.1598     3.3498     0.4834 H       
  27 H27            5.0684     3.1562    -1.9870 H       
  28 H28            3.3784     3.7145    -1.9682 H       
  29 H29            5.3179     6.7684    -2.5698 H       
  30 H30            7.6255    -0.3594    -0.0744 H       
@<TRIPOS>BOND
   1    1    2 ar
   2    1    6 ar
   3    1   21 1
   4    2   18 1
   5    2    3 ar
   6    3    4 ar
   7    3   22 1
   8    4    5 ar
   9    4    7 1
  10    5    6 ar
  11    5    9 1
  12    6   23 1
  13    7    8 1
  14    7   24 1
  15    8    9 2
  16    8   15 1
  17    9   10 1
  18   10   11 1
  19   10   25 1
  20   10   26 1
  21   11   12 1
  22   11   27 1
  23   11   28 1
  24   12   13 1
  25   12   14 2
  26   13   29 1
  27   15   16 2
  28   15   17 1
  29   17   30 1
  30   18   19 2
  31   18   20 2

#	End of record

