#	Name: ASD01410547
#	Creating user name:	WinNT
#	Creation time:	15. 06. 2019 19:18

#	Modifying user name:	WinNT
#	Modification time:	15. 06. 2019 19:18

#	Program:	/corina/corina34_cracker 3.40 0067  02.08.2006

@<TRIPOS>MOLECULE
ASD01410547
  86   90    0    0    0
SMALL
NO_CHARGES


@<TRIPOS>ATOM
   1 C1             0.4278     1.0536    -3.5046 C.ar    
   2 C2             1.4588     1.2607    -4.4188 C.ar    
   3 C3             2.7634     0.9766    -4.0418 C.ar    
   4 N4             3.0312     0.5160    -2.8349 N.ar    
   5 C5             2.0776     0.3079    -1.9427 C.ar    
   6 C6             0.7486     0.5695    -2.2486 C.ar    
   7 O7             2.4018    -0.1677    -0.7131 O.3     
   8 C8             3.7015    -0.4881    -0.4749 C.ar    
   9 C9             4.6359     0.5191    -0.2653 C.ar    
  10 C10            5.9579     0.2050    -0.0231 C.ar    
  11 C11            6.3636    -1.1218     0.0128 C.ar    
  12 C12            5.4250    -2.1435    -0.1976 C.ar    
  13 C13            4.0883    -1.8154    -0.4364 C.ar    
  14 N14            7.6992    -1.4384     0.2565 N.am    
  15 C15            8.5412    -1.6479    -0.7748 C.2     
  16 C16            8.1875    -1.5433     1.6337 C.3     
  17 O17            9.6827    -1.9993    -0.5640 O.2     
  18 C18            8.0642    -1.4456    -2.1900 C.3     
  19 N19            1.1818     1.7487    -5.7011 N.3     
  20 C20            8.8991    -2.3089    -3.1379 C.3     
  21 C21            8.4148    -2.1035    -4.5746 C.3     
  22 C22            8.5676    -0.6304    -4.9586 C.3     
  23 C23            7.7328     0.2330    -4.0107 C.3     
  24 C24            8.2170     0.0276    -2.5739 C.3     
  25 C25            8.0834    -0.4249    -6.3953 C.3     
  26 C26            7.3046    -2.5185     2.4150 C.3     
  27 C27            7.8146    -2.6281     3.8533 C.3     
  28 C28            7.7656    -1.2510     4.5182 C.3     
  29 C29            8.6486    -0.2758     3.7369 C.3     
  30 C30            8.1385    -0.1662     2.2986 C.3     
  31 O31            8.2420    -1.3534     5.8615 O.3     
  32 C32            7.6567    -0.4082     6.7594 C.3     
  33 C33            2.4134     1.8877    -6.4887 C.3     
  34 C34            2.0604     2.2824    -7.9245 C.3     
  35 C35            1.2894     3.6052    -7.9102 C.3     
  36 C36            0.0367     3.4475    -7.0440 C.3     
  37 C37            0.4484     3.0190    -5.6336 C.3     
  38 F38           -0.6445     4.6678    -6.9813 F       
  39 F39           -0.7981     2.4739    -7.6029 F       
  40 C40           -0.3312     0.3295    -1.2250 C.3     
  41 F41           -1.5744     0.6666    -1.7709 F       
  42 F42           -0.3337    -1.0204    -0.8576 F       
  43 F43           -0.0877     1.1196    -0.0964 F       
  44 C44            5.8463    -3.5555    -0.1614 C.2     
  45 O45            7.0244    -3.8357    -0.0613 O.2     
  46 O46            4.9249    -4.5357    -0.2394 O.3     
  47 H47           -0.5968     1.2700    -3.7685 H       
  48 H48            3.5685     1.1339    -4.7442 H       
  49 H49            4.3259     1.5533    -0.2924 H       
  50 H50            6.6782     0.9933     0.1385 H       
  51 H51            3.3601    -2.5962    -0.5992 H       
  52 H52            9.2148    -1.9078     1.6282 H       
  53 H53            7.0156    -1.7336    -2.2647 H       
  54 H54            9.9477    -2.0208    -3.0632 H       
  55 H55            8.7902    -3.3584    -2.8643 H       
  56 H56            9.0096    -2.7186    -5.2499 H       
  57 H57            7.3662    -2.3916    -4.6493 H       
  58 H58            9.6162    -0.3423    -4.8839 H       
  59 H59            7.8416     1.2825    -4.2842 H       
  60 H60            6.6842    -0.0551    -4.0854 H       
  61 H61            7.6222     0.6426    -1.8986 H       
  62 H62            9.2656     0.3156    -2.4992 H       
  63 H63            7.0348    -0.7130    -6.4700 H       
  64 H64            8.1922     0.6245    -6.6689 H       
  65 H65            8.6782    -1.0400    -7.0706 H       
  66 H66            6.2774    -2.1541     2.4205 H       
  67 H67            7.3395    -3.4996     1.9414 H       
  68 H68            7.1856    -3.3229     4.4099 H       
  69 H69            8.8419    -2.9926     3.8478 H       
  70 H70            6.7384    -0.8866     4.5237 H       
  71 H71            8.6136     0.7053     4.2105 H       
  72 H72            9.6758    -0.6403     3.7314 H       
  73 H73            8.7675     0.5285     1.7420 H       
  74 H74            7.1113     0.1982     2.3041 H       
  75 H75            8.0703    -0.5511     7.7577 H       
  76 H76            7.8763     0.6029     6.4164 H       
  77 H77            6.5771    -0.5554     6.7888 H       
  78 H78            3.0434     2.6585    -6.0446 H       
  79 H79            2.9500     0.9390    -6.4942 H       
  80 H80            2.9755     2.4008    -8.5048 H       
  81 H81            1.4419     1.5055    -8.3739 H       
  82 H82            1.9217     4.3909    -7.4967 H       
  83 H83            0.9983     3.8682    -8.9272 H       
  84 H84           -0.4423     2.8920    -5.0182 H       
  85 H85            1.0875     3.7845    -5.1936 H       
  86 H86            5.2491    -5.4463    -0.2116 H       
@<TRIPOS>BOND
   1    1    2 ar
   2    1    6 ar
   3    1   47 1
   4    2    3 ar
   5    2   19 1
   6    3    4 ar
   7    3   48 1
   8    4    5 ar
   9    5    6 ar
  10    5    7 1
  11    6   40 1
  12    7    8 1
  13    8    9 ar
  14    8   13 ar
  15    9   10 ar
  16    9   49 1
  17   10   11 ar
  18   10   50 1
  19   11   12 ar
  20   11   14 1
  21   12   13 ar
  22   12   44 1
  23   13   51 1
  24   14   15 am
  25   14   16 1
  26   15   17 2
  27   15   18 1
  28   16   26 1
  29   16   30 1
  30   16   52 1
  31   18   20 1
  32   18   24 1
  33   18   53 1
  34   19   33 1
  35   19   37 1
  36   20   21 1
  37   20   54 1
  38   20   55 1
  39   21   22 1
  40   21   56 1
  41   21   57 1
  42   22   23 1
  43   22   25 1
  44   22   58 1
  45   23   24 1
  46   23   59 1
  47   23   60 1
  48   24   61 1
  49   24   62 1
  50   25   63 1
  51   25   64 1
  52   25   65 1
  53   26   27 1
  54   26   66 1
  55   26   67 1
  56   27   28 1
  57   27   68 1
  58   27   69 1
  59   28   29 1
  60   28   31 1
  61   28   70 1
  62   29   30 1
  63   29   71 1
  64   29   72 1
  65   30   73 1
  66   30   74 1
  67   31   32 1
  68   32   75 1
  69   32   76 1
  70   32   77 1
  71   33   34 1
  72   33   78 1
  73   33   79 1
  74   34   35 1
  75   34   80 1
  76   34   81 1
  77   35   36 1
  78   35   82 1
  79   35   83 1
  80   36   37 1
  81   36   38 1
  82   36   39 1
  83   37   84 1
  84   37   85 1
  85   40   41 1
  86   40   42 1
  87   40   43 1
  88   44   45 2
  89   44   46 1
  90   46   86 1

#	End of record

