#	Name: ASD01209072
#	Creating user name:	WinNT
#	Creation time:	15. 06. 2019 19:10

#	Modifying user name:	WinNT
#	Modification time:	15. 06. 2019 19:10

#	Program:	/corina/corina34_cracker 3.40 0067  02.08.2006

@<TRIPOS>MOLECULE
ASD01209072
  57   58    0    0    0
SMALL
NO_CHARGES


@<TRIPOS>ATOM
   1 C1             0.0706     1.1889     0.6350 C.ar    
   2 C2            -0.0051    -0.1776     0.4070 C.ar    
   3 C3            -1.2362    -0.7852     0.2031 C.ar    
   4 C4            -2.3959    -0.0300     0.2263 C.ar    
   5 C5            -2.3256     1.3474     0.4557 C.ar    
   6 C6            -1.0837     1.9531     0.6660 C.ar    
   7 O7             1.2793     1.7776     0.8339 O.3     
   8 C8             1.2968     3.2021     0.9449 C.3     
   9 C9             2.6748     3.7285     0.5387 C.3     
  10 C10           -3.5555     2.1557     0.4810 C.2     
  11 O11           -4.6321     1.6272     0.3027 O.2     
  12 C12           -3.4765     3.6402     0.7284 C.3     
  13 C13           -4.6991     4.3253     0.1145 C.3     
  14 C14           -3.4462     3.9052     2.2350 C.3     
  15 O15           -1.3030    -2.1242    -0.0201 O.3     
  16 C16           -0.0633    -2.8237    -0.1458 C.3     
  17 C17           -0.2752    -4.0924    -0.9743 C.3     
  18 C18           -0.6643    -3.7149    -2.3804 C.ar    
  19 C19            0.3119    -3.5284    -3.3412 C.ar    
  20 C20            1.0032     3.6046     2.3915 C.3     
  21 C21           -1.9977    -3.5608    -2.7108 C.ar    
  22 C22           -2.3546    -3.2146    -4.0006 C.ar    
  23 C23           -1.3781    -3.0220    -4.9599 C.ar    
  24 C24           -0.0450    -3.1821    -4.6310 C.ar    
  25 C25            0.4518    -3.2024     1.2442 C.3     
  26 O26            3.6551     3.2647     1.4694 O.3     
  27 C27            4.9843     3.7022     1.1798 C.3     
  28 H28            0.8974    -0.7706     0.3877 H       
  29 H29           -3.3533    -0.5038     0.0672 H       
  30 H30           -1.0237     3.0168     0.8436 H       
  31 H31            0.5376     3.6271     0.2883 H       
  32 H32            2.9220     3.3673    -0.4595 H       
  33 H33            2.6616     4.8184     0.5378 H       
  34 H34           -2.5700     4.0370     0.2714 H       
  35 H35           -5.6056     3.9284     0.5715 H       
  36 H36           -4.6420     5.3989     0.2935 H       
  37 H37           -4.7207     4.1365    -0.9588 H       
  38 H38           -4.3527     3.5084     2.6920 H       
  39 H39           -2.5752     3.4171     2.6723 H       
  40 H40           -3.3891     4.9789     2.4139 H       
  41 H41            0.6664    -2.1835    -0.6417 H       
  42 H42            0.6484    -4.6708    -0.9957 H       
  43 H43           -1.0683    -4.6908    -0.5260 H       
  44 H44            1.3535    -3.6528    -3.0841 H       
  45 H45            1.0165     4.6912     2.4762 H       
  46 H46            0.0214     3.2296     2.6808 H       
  47 H47            1.7624     3.1797     3.0481 H       
  48 H48           -2.7606    -3.7112    -1.9613 H       
  49 H49           -3.3964    -3.0948    -4.2589 H       
  50 H50           -1.6569    -2.7519    -5.9677 H       
  51 H51            0.7179    -3.0317    -5.3805 H       
  52 H52            1.3975    -3.7359     1.1484 H       
  53 H53            0.6028    -2.2986     1.8345 H       
  54 H54           -0.2779    -3.8425     1.7401 H       
  55 H55            5.2794     3.3405     0.1948 H       
  56 H56            5.0190     4.7916     1.1921 H       
  57 H57            5.6683     3.3083     1.9314 H       
@<TRIPOS>BOND
   1    1    2 ar
   2    1    7 1
   3    1    6 ar
   4    2    3 ar
   5    2   28 1
   6    3    4 ar
   7    3   15 1
   8    4    5 ar
   9    4   29 1
  10    5    6 ar
  11    5   10 1
  12    6   30 1
  13    7    8 1
  14    8    9 1
  15    8   20 1
  16    8   31 1
  17    9   26 1
  18    9   32 1
  19    9   33 1
  20   10   11 2
  21   10   12 1
  22   12   13 1
  23   12   14 1
  24   12   34 1
  25   13   35 1
  26   13   36 1
  27   13   37 1
  28   14   38 1
  29   14   39 1
  30   14   40 1
  31   15   16 1
  32   16   17 1
  33   16   25 1
  34   16   41 1
  35   17   18 1
  36   17   42 1
  37   17   43 1
  38   18   19 ar
  39   18   21 ar
  40   19   24 ar
  41   19   44 1
  42   20   45 1
  43   20   46 1
  44   20   47 1
  45   21   22 ar
  46   21   48 1
  47   22   23 ar
  48   22   49 1
  49   23   24 ar
  50   23   50 1
  51   24   51 1
  52   25   52 1
  53   25   53 1
  54   25   54 1
  55   26   27 1
  56   27   55 1
  57   27   56 1
  58   27   57 1

#	End of record

