#	Name: ASD03430865
#	Creating user name:	WinNT
#	Creation time:	15. 06. 2019 20:41

#	Modifying user name:	WinNT
#	Modification time:	15. 06. 2019 20:41

#	Program:	/corina/corina34_cracker 3.40 0067  02.08.2006

@<TRIPOS>MOLECULE
ASD03430865
  33   36    0    0    0
SMALL
NO_CHARGES


@<TRIPOS>ATOM
   1 C1            -0.0168     1.3853     0.0097 C.ar    
   2 C2             0.0021    -0.0041     0.0020 C.ar    
   3 C3             1.1701     2.0965     0.0021 C.ar    
   4 C4             2.3901     1.4272    -0.0135 C.ar    
   5 C5             2.3962     0.0353    -0.0112 C.ar    
   6 C6             1.2128    -0.6730    -0.0090 C.ar    
   7 O7             3.6581     1.9270    -0.0456 O.3     
   8 C8             3.8409    -0.3871     0.0008 C.3     
   9 C9             4.5825     0.9043     0.3726 C.3     
  10 N10            4.6335    -2.5109     0.2941 N.am    
  11 C11            4.1036    -1.4857     0.9906 C.2     
  12 C12            4.2891    -0.9294    -1.3237 C.ar    
  13 C13            4.3107    -0.4201    -2.6024 C.ar    
  14 C14            4.7998    -1.1864    -3.6458 C.ar    
  15 C15            5.2669    -2.4643    -3.4010 C.ar    
  16 C16            5.2471    -2.9796    -2.1215 C.ar    
  17 C17            4.7560    -2.2161    -1.0658 C.ar    
  18 O18            3.8824    -1.4562     2.1827 O.2     
  19 O19           -1.2041     2.0474     0.0189 O.3     
  20 F20           -1.1568    -0.6985     0.0058 F       
  21 C21           -1.1506     3.4754     0.0264 C.3     
  22 H22            1.1496     3.1763     0.0081 H       
  23 H23            1.2314    -1.7528    -0.0158 H       
  24 H24            5.5212     0.9832    -0.1759 H       
  25 H25            4.7558     0.9553     1.4476 H       
  26 H26            4.8985    -3.3553     0.6911 H       
  27 H27            3.9452     0.5785    -2.7916 H       
  28 H28            4.8163    -0.7871    -4.6492 H       
  29 H29            5.6487    -3.0622    -4.2154 H       
  30 H30            5.6132    -3.9789    -1.9381 H       
  31 H31           -2.1639     3.8769     0.0333 H       
  32 H32           -0.6193     3.8144     0.9157 H       
  33 H33           -0.6277     3.8241    -0.8642 H       
@<TRIPOS>BOND
   1    1    2 ar
   2    1    3 ar
   3    1   19 1
   4    2    6 ar
   5    2   20 1
   6    3    4 ar
   7    3   22 1
   8    4    5 ar
   9    4    7 1
  10    5    6 ar
  11    5    8 1
  12    6   23 1
  13    7    9 1
  14    8    9 1
  15    8   11 1
  16    8   12 1
  17    9   24 1
  18    9   25 1
  19   10   11 am
  20   10   17 1
  21   10   26 1
  22   11   18 2
  23   12   13 ar
  24   12   17 ar
  25   13   14 ar
  26   13   27 1
  27   14   15 ar
  28   14   28 1
  29   15   16 ar
  30   15   29 1
  31   16   17 ar
  32   16   30 1
  33   19   21 1
  34   21   31 1
  35   21   32 1
  36   21   33 1

#	End of record

