#	Name: ASD03320235
#	Creating user name:	WinNT
#	Creation time:	15. 06. 2019 20:36

#	Modifying user name:	WinNT
#	Modification time:	15. 06. 2019 20:36

#	Program:	/corina/corina34_cracker 3.40 0067  02.08.2006

@<TRIPOS>MOLECULE
ASD03320235
  28   28    0    0    0
SMALL
NO_CHARGES


@<TRIPOS>ATOM
   1 C1            -0.0158     1.3797     0.0306 C.ar    
   2 C2             0.0723     0.1415    -0.5788 C.ar    
   3 C3             1.2766    -0.5341    -0.6026 C.ar    
   4 C4             2.4001     0.0315    -0.0136 C.ar    
   5 C5             2.3083     1.2752     0.5977 C.ar    
   6 C6             1.1009     1.9456     0.6179 C.ar    
   7 C7            -1.3301     2.1167     0.0492 C.3     
   8 N8             3.6211    -0.6502    -0.0355 N.am    
   9 C9             4.7750     0.0376    -0.1445 C.2     
  10 O10            4.7515     1.2411    -0.3214 O.2     
  11 F11           -2.0480     1.7611     1.1960 F       
  12 F12           -1.0916     3.4952     0.0571 F       
  13 F13           -2.0708     1.7782    -1.0883 F       
  14 C14            6.0619    -0.6663    -0.0498 C.2     
  15 C15            7.2292     0.0294    -0.1601 C.2     
  16 C16            6.0897    -2.0828     0.1584 C.1     
  17 C17            8.5486    -0.6922    -0.0629 C.3     
  18 O18            7.2032     1.3588    -0.3554 O.3     
  19 N19            6.1116    -3.2065     0.3235 N.1     
  20 H20           -0.8018    -0.2979    -1.0364 H       
  21 H21            1.3446    -1.5012    -1.0784 H       
  22 H22            3.1800     1.7176     1.0569 H       
  23 H23            1.0289     2.9128     1.0931 H       
  24 H24            3.6375    -1.6180     0.0278 H       
  25 H25            8.8598    -1.0157    -1.0562 H       
  26 H26            9.3002    -0.0209     0.3526 H       
  27 H27            8.4402    -1.5619     0.5851 H       
  28 H28            8.0561     1.8087    -0.4274 H       
@<TRIPOS>BOND
   1    1    2 ar
   2    1    6 ar
   3    1    7 1
   4    2    3 ar
   5    2   20 1
   6    3    4 ar
   7    3   21 1
   8    4    5 ar
   9    4    8 1
  10    5    6 ar
  11    5   22 1
  12    6   23 1
  13    7   11 1
  14    7   12 1
  15    7   13 1
  16    8    9 am
  17    8   24 1
  18    9   10 2
  19    9   14 1
  20   14   15 2
  21   14   16 1
  22   15   17 1
  23   15   18 1
  24   16   19 3
  25   17   25 1
  26   17   26 1
  27   17   27 1
  28   18   28 1

#	End of record

