#	Name: ASD01814861
#	Creating user name:	WinNT
#	Creation time:	15. 06. 2019 19:33

#	Modifying user name:	WinNT
#	Modification time:	15. 06. 2019 19:33

#	Program:	/corina/corina34_cracker 3.40 0067  02.08.2006

@<TRIPOS>MOLECULE
ASD01814861
  50   53    0    0    0
SMALL
NO_CHARGES


@<TRIPOS>ATOM
   1 C1            -0.3111     0.9776     0.1400 C.2     
   2 C2            -0.1838    -0.4180     0.1323 C.2     
   3 C3             1.0591    -0.9786     0.0877 C.2     
   4 C4             2.1907    -0.1471     0.0501 C.2     
   5 N5             2.0371     1.2127     0.0590 N.am    
   6 C6             0.7899     1.7617     0.1035 C.2     
   7 C7             3.4691    -0.7208     0.0043 C.2     
   8 C8             4.5751     0.0780    -0.0320 C.2     
   9 C9             4.4133     1.4759    -0.0232 C.2     
  10 C10            3.1145     2.0225     0.0236 C.2     
  11 O11            2.9651     3.2327     0.0312 O.2     
  12 C12            5.5839     2.3552    -0.0611 C.2     
  13 O13            5.4220     3.6944    -0.0525 O.3     
  14 O14            6.7021     1.8779    -0.1003 O.2     
  15 C15            3.6221    -2.2199    -0.0044 C.3     
  16 N16            3.7438    -2.6917    -1.3903 N.3     
  17 C17            4.1300    -4.1090    -1.4321 C.3     
  18 C18            4.1684    -4.5817    -2.8873 C.3     
  19 N19            5.1213    -3.7566    -3.6427 N.3     
  20 C20            4.7351    -2.3393    -3.6009 C.3     
  21 C21            4.6967    -1.8666    -2.1457 C.3     
  22 H22            5.1163    -4.2305    -0.9842 H       
  23 C23            5.2370    -4.2052    -4.9604 C.ar    
  24 C24            4.1442    -4.1428    -5.8154 C.ar    
  25 C25            6.4471    -4.7095    -5.4205 C.ar    
  26 C26            6.5580    -5.1521    -6.7238 C.ar    
  27 C27            5.4662    -5.0939    -7.5708 C.ar    
  28 C28            4.2621    -4.5873    -7.1178 C.ar    
  29 H29            4.4828    -5.6248    -2.9226 H       
  30 H30            3.1757    -4.4857    -3.3271 H       
  31 N31            7.6161    -4.7718    -4.5149 N.pl3   
  32 O32            8.6471    -5.3028    -4.8871 O.2     
  33 O33            7.5470    -4.2920    -3.3975 O.2     
  34 H34           -1.2921     1.4284     0.1708 H       
  35 H35           -1.0628    -1.0448     0.1619 H       
  36 H36            1.1721    -2.0527     0.0816 H       
  37 H37            0.6800     2.8361     0.1101 H       
  38 H38            5.5627    -0.3575    -0.0667 H       
  39 H39            6.2243     4.2337    -0.0786 H       
  40 H40            4.5165    -2.4971     0.5536 H       
  41 H41            2.7481    -2.6771     0.4596 H       
  42 H42            3.4025    -4.7007    -0.8766 H       
  43 H43            5.4626    -1.7476    -4.1564 H       
  44 H44            3.7489    -2.2178    -4.0488 H       
  45 H45            4.3824    -0.8235    -2.1104 H       
  46 H46            5.6894    -1.9627    -1.7059 H       
  47 H47            3.2033    -3.7476    -5.4621 H       
  48 H48            7.4984    -5.5439    -7.0821 H       
  49 H49            5.5557    -5.4404    -8.5898 H       
  50 H50            3.4114    -4.5436    -7.7818 H       
@<TRIPOS>BOND
   1    1    2 1
   2    1    6 2
   3    1   34 1
   4    2    3 2
   5    2   35 1
   6    3    4 1
   7    3   36 1
   8    4    5 1
   9    4    7 2
  10    5    6 1
  11    5   10 am
  12    6   37 1
  13    7   15 1
  14    7    8 1
  15    8    9 2
  16    8   38 1
  17    9   10 1
  18    9   12 1
  19   10   11 2
  20   12   13 1
  21   12   14 2
  22   13   39 1
  23   15   16 1
  24   15   40 1
  25   15   41 1
  26   16   17 1
  27   16   21 1
  28   17   18 1
  29   17   22 1
  30   17   42 1
  31   18   19 1
  32   18   29 1
  33   18   30 1
  34   19   20 1
  35   19   23 1
  36   20   21 1
  37   20   43 1
  38   20   44 1
  39   21   45 1
  40   21   46 1
  41   23   24 ar
  42   23   25 ar
  43   24   28 ar
  44   24   47 1
  45   25   26 ar
  46   25   31 1
  47   26   27 ar
  48   26   48 1
  49   27   28 ar
  50   27   49 1
  51   28   50 1
  52   31   32 2
  53   31   33 2

#	End of record

