#	Name: ASD01816309
#	Creating user name:	WinNT
#	Creation time:	15. 06. 2019 19:35

#	Modifying user name:	WinNT
#	Modification time:	15. 06. 2019 19:35

#	Program:	/corina/corina34_cracker 3.40 0067  02.08.2006

@<TRIPOS>MOLECULE
ASD01816309
  57   63    0    0    0
SMALL
NO_CHARGES


@<TRIPOS>ATOM
   1 C1            -0.0167     1.3813     0.0096 C.ar    
   2 C2             0.0021    -0.0041     0.0020 C.ar    
   3 C3             1.1984    -0.6909    -0.0131 C.ar    
   4 C4             2.4015     0.0059    -0.0208 C.ar    
   5 C5             2.3790     1.4106    -0.0130 C.ar    
   6 C6             1.1663     2.0916     0.0022 C.ar    
   7 N7             3.6053    -0.6772    -0.0354 N.pl3   
   8 C8             4.7970    -0.0586    -0.0430 C.2     
   9 C9             4.9000     1.3103    -0.0371 C.2     
  10 C10            3.6670     2.1301    -0.0215 C.2     
  11 C11            5.9971     2.2729    -0.0424 C.2     
  12 N12            5.4246     3.4960    -0.0314 N.am    
  13 N13            4.0323     3.3799    -0.0189 N.2     
  14 O14            7.1915     2.0228    -0.0541 O.2     
  15 C15            3.5779    -2.1420    -0.0425 C.3     
  16 C16            3.5553    -2.6371    -1.4657 C.ar    
  17 C17            4.7430    -2.8861    -2.1285 C.ar    
  18 C18            4.7255    -3.3395    -3.4331 C.ar    
  19 C19            3.5137    -3.5456    -4.0786 C.ar    
  20 C20            2.3228    -3.2951    -3.4103 C.ar    
  21 C21            2.3467    -2.8468    -2.1041 C.ar    
  22 N22            3.4927    -4.0053    -5.4028 N.pl3   
  23 C23            2.3877    -4.2463    -6.1441 C.2     
  24 C24            2.7941    -4.6753    -7.3615 C.2     
  25 C25            4.1931    -4.6976    -7.3654 C.2     
  26 N26            4.6127    -4.2907    -6.1944 N.2     
  27 C27            6.1267     4.7086    -0.0316 C.ar    
  28 C28            5.4349     5.9117    -0.0138 C.ar    
  29 C29            7.5154     4.7073    -0.0438 C.ar    
  30 C30            8.2079     5.9022    -0.0421 C.ar    
  31 C31            7.5197     7.1067    -0.0280 C.ar    
  32 C32            6.1297     7.1112    -0.0137 C.ar    
  33 O33            8.2198     8.2748    -0.0187 O.3     
  34 C34            7.5014     9.4587    -0.3820 C.3     
  35 C35            6.1622     9.4574     0.3673 C.3     
  36 O36            5.4370     8.2830    -0.0076 O.3     
  37 H37           -0.9602     1.9068     0.0169 H       
  38 H38           -0.9289    -0.5515     0.0083 H       
  39 H39            1.2004    -1.7709    -0.0185 H       
  40 H40            1.1506     3.1715     0.0077 H       
  41 H41            5.6983    -0.6536    -0.0536 H       
  42 H42            4.4657    -2.5244     0.4612 H       
  43 H43            2.6861    -2.4912     0.4779 H       
  44 H44            5.6853    -2.7256    -1.6258 H       
  45 H45            5.6534    -3.5332    -3.9505 H       
  46 H46            1.3787    -3.4542    -3.9100 H       
  47 H47            1.4207    -2.6517    -1.5837 H       
  48 H48            1.3646    -4.1197    -5.8222 H       
  49 H49            2.1520    -4.9517    -8.1847 H       
  50 H50            4.8191    -4.9951    -8.1937 H       
  51 H51            4.3549     5.9133    -0.0004 H       
  52 H52            8.0542     3.7713    -0.0542 H       
  53 H53            9.2878     5.8990    -0.0514 H       
  54 H54            8.0788    10.3396    -0.1014 H       
  55 H55            7.3211     9.4638    -1.4570 H       
  56 H56            6.3424     9.4461     1.4422 H       
  57 H57            5.5901    10.3456     0.0993 H       
@<TRIPOS>BOND
   1    1    2 ar
   2    1    6 ar
   3    1   37 1
   4    2    3 ar
   5    2   38 1
   6    3    4 ar
   7    3   39 1
   8    4    5 ar
   9    4    7 1
  10    5    6 ar
  11    5   10 1
  12    6   40 1
  13    7    8 1
  14    7   15 1
  15    8    9 2
  16    8   41 1
  17    9   10 1
  18    9   11 1
  19   10   13 2
  20   11   12 am
  21   11   14 2
  22   12   13 1
  23   12   27 1
  24   15   16 1
  25   15   42 1
  26   15   43 1
  27   16   17 ar
  28   16   21 ar
  29   17   18 ar
  30   17   44 1
  31   18   19 ar
  32   18   45 1
  33   19   20 ar
  34   19   22 1
  35   20   21 ar
  36   20   46 1
  37   21   47 1
  38   22   23 1
  39   22   26 1
  40   23   24 2
  41   23   48 1
  42   24   25 1
  43   24   49 1
  44   25   26 2
  45   25   50 1
  46   27   29 ar
  47   27   28 ar
  48   28   32 ar
  49   28   51 1
  50   29   30 ar
  51   29   52 1
  52   30   31 ar
  53   30   53 1
  54   31   32 ar
  55   31   33 1
  56   32   36 1
  57   33   34 1
  58   34   35 1
  59   34   54 1
  60   34   55 1
  61   35   36 1
  62   35   56 1
  63   35   57 1

#	End of record

