#	Name: ASD01208014
#	Creating user name:	WinNT
#	Creation time:	15. 06. 2019 19:09

#	Modifying user name:	WinNT
#	Modification time:	15. 06. 2019 19:09

#	Program:	/corina/corina34_cracker 3.40 0067  02.08.2006

@<TRIPOS>MOLECULE
ASD01208014
  58   61    0    0    0
SMALL
NO_CHARGES


@<TRIPOS>ATOM
   1 C1            -0.0844     1.4339     0.0275 C.ar    
   2 C2             0.0184     0.0511    -0.0131 C.ar    
   3 C3            -1.1248    -0.7352     0.0260 C.ar    
   4 C4            -2.3734    -0.1416     0.1064 C.ar    
   5 C5            -2.4812     1.2493     0.1480 C.ar    
   6 C6            -1.3290     2.0358     0.1136 C.ar    
   7 C7            -3.8114     1.8872     0.2337 C.2     
   8 C8            -4.0545     3.2289     0.2806 C.2     
   9 N9            -5.0171     1.2332     0.2740 N.pl3   
  10 C10           -6.0162     2.1688     0.3515 C.2     
  11 C11           -5.4407     3.4059     0.3567 C.2     
  12 O12            1.0381     2.1992    -0.0116 O.3     
  13 C13            0.8560     3.6143    -0.0907 C.3     
  14 C14            2.0901     4.2522    -0.7319 C.3     
  15 O15            3.2212     4.0636     0.1209 O.3     
  16 C16            0.6608     4.1829     1.3162 C.3     
  17 O17           -1.0186    -2.0894    -0.0150 O.3     
  18 C18           -1.4874    -2.7330    -1.1161 C.ar    
  19 C19           -1.9379    -2.0045    -2.2077 C.ar    
  20 C20           -1.5110    -4.1198    -1.1531 C.ar    
  21 C21           -1.9876    -4.7717    -2.2739 C.ar    
  22 C22           -2.4404    -4.0433    -3.3585 C.ar    
  23 C23           -2.4135    -2.6612    -3.3261 C.ar    
  24 S24           -3.0466    -4.8779    -4.7870 S.o2    
  25 C25           -4.8212    -5.0835    -4.4721 C.3     
  26 O26           -2.8319    -3.9575    -5.8481 O.2     
  27 O27           -2.3871    -6.1363    -4.7639 O.2     
  28 C28            4.4327     4.6251    -0.3880 C.3     
  29 C29           -7.4660     1.8864     0.4150 C.2     
  30 N30           -8.4290     2.7836     0.4890 N.2     
  31 N31           -9.6534     2.1046     0.5297 N.pl3   
  32 C32           -9.4020     0.7785     0.4784 C.2     
  33 C33           -8.0647     0.6093     0.4010 C.2     
  34 H34            0.9906    -0.4150    -0.0758 H       
  35 H35           -3.2625    -0.7541     0.1365 H       
  36 H36           -1.4079     3.1124     0.1456 H       
  37 H37           -3.3117     4.0126     0.2626 H       
  38 H38           -5.1414     0.2715     0.2513 H       
  39 H39           -5.9608     4.3508     0.4102 H       
  40 H40           -0.0229     3.8343    -0.6967 H       
  41 H41            2.2810     3.7839    -1.6974 H       
  42 H42            1.9157     5.3188    -0.8735 H       
  43 H43            1.5398     3.9629     1.9222 H       
  44 H44            0.5220     5.2623     1.2559 H       
  45 H45           -0.2183     3.7285     1.7730 H       
  46 H46           -1.9171    -0.9250    -2.1829 H       
  47 H47           -1.1567    -4.6892    -0.3065 H       
  48 H48           -2.0062    -5.8511    -2.3032 H       
  49 H49           -2.7681    -2.0947    -4.1744 H       
  50 H50           -5.2837    -4.1045    -4.3459 H       
  51 H51           -5.2827    -5.5973    -5.3154 H       
  52 H52           -4.9636    -5.6721    -3.5658 H       
  53 H53            5.2432     4.4397     0.3169 H       
  54 H54            4.6722     4.1645    -1.3464 H       
  55 H55            4.3069     5.6994    -0.5225 H       
  56 H56          -10.5303     2.5157     0.5855 H       
  57 H57          -10.1414    -0.0085     0.4922 H       
  58 H58           -7.5453    -0.3360     0.3459 H       
@<TRIPOS>BOND
   1    1    2 ar
   2    1   12 1
   3    1    6 ar
   4    2    3 ar
   5    2   34 1
   6    3    4 ar
   7    3   17 1
   8    4    5 ar
   9    4   35 1
  10    5    6 ar
  11    5    7 1
  12    6   36 1
  13    7    8 2
  14    7    9 1
  15    8   11 1
  16    8   37 1
  17    9   10 1
  18    9   38 1
  19   10   11 2
  20   10   29 1
  21   11   39 1
  22   12   13 1
  23   13   14 1
  24   13   16 1
  25   13   40 1
  26   14   15 1
  27   14   41 1
  28   14   42 1
  29   15   28 1
  30   16   43 1
  31   16   44 1
  32   16   45 1
  33   17   18 1
  34   18   19 ar
  35   18   20 ar
  36   19   23 ar
  37   19   46 1
  38   20   21 ar
  39   20   47 1
  40   21   22 ar
  41   21   48 1
  42   22   23 ar
  43   22   24 1
  44   23   49 1
  45   24   25 1
  46   24   26 2
  47   24   27 2
  48   25   50 1
  49   25   51 1
  50   25   52 1
  51   28   53 1
  52   28   54 1
  53   28   55 1
  54   29   30 2
  55   29   33 1
  56   30   31 1
  57   31   32 1
  58   31   56 1
  59   32   33 2
  60   32   57 1
  61   33   58 1

#	End of record

