#	Name: ASD01190103
#	Creating user name:	WinNT
#	Creation time:	15. 06. 2019 19:07

#	Modifying user name:	WinNT
#	Modification time:	15. 06. 2019 19:07

#	Program:	/corina/corina34_cracker 3.40 0067  02.08.2006

@<TRIPOS>MOLECULE
ASD01190103
  52   55    0    0    0
SMALL
NO_CHARGES


@<TRIPOS>ATOM
   1 N1            -0.0100     1.2387     0.3947 N.pl3   
   2 C2            -0.0040     0.1133    -0.3965 C.2     
   3 C3             1.3117    -0.2003    -0.6632 C.2     
   4 C4             2.1021     0.7575    -0.0177 C.2     
   5 C5             1.2739     1.6196     0.6173 C.2     
   6 C6            -1.1550    -0.6026    -0.8584 C.1     
   7 N7            -2.0680    -1.1705    -1.2248 N.1     
   8 C8             3.6079     0.8180    -0.0272 C.3     
   9 C9             4.1130     0.7223    -1.4683 C.3     
  10 O10            4.0387     2.0533     0.5475 O.3     
  11 N11            5.5332    -3.6317     2.8194 N.pl3   
  12 N12            4.8626    -4.6412     2.1210 N.2     
  13 C13            4.1325    -4.1220     1.1749 C.2     
  14 C14            4.3066    -2.6737     1.2201 C.ar    
  15 C15            3.7920    -1.6084     0.4728 C.ar    
  16 C16            4.1618    -0.3302     0.7765 C.ar    
  17 C17            5.0446    -0.0775     1.8194 C.ar    
  18 C18            5.5606    -1.1010     2.5629 C.ar    
  19 C19            5.2012    -2.4152     2.2767 C.ar    
  20 C20            6.3995    -3.8297     3.9024 C.ar    
  21 C21            6.1519    -4.8479     4.8137 C.ar    
  22 C22            7.0071    -5.0414     5.8806 C.ar    
  23 C23            8.1110    -4.2209     6.0421 C.ar    
  24 C24            8.3597    -3.2050     5.1344 C.ar    
  25 C25            7.5101    -3.0117     4.0629 C.ar    
  26 F26            8.9461    -4.4116     7.0868 F       
  27 F27            3.5988     1.7882    -2.2144 F       
  28 F28            5.5109     0.7784    -1.4771 F       
  29 F29            3.6913    -0.4871    -2.0310 F       
  30 C30           -1.2035     1.9169     0.9067 C.3     
  31 C31           -1.7987     2.8002    -0.1917 C.3     
  32 C32           -3.1123     3.4108     0.3009 C.3     
  33 O33           -3.7266     4.1410    -0.7629 O.3     
  34 O34           -0.8787     3.8453    -0.5133 O.3     
  35 H35            1.6659    -1.0294    -1.2578 H       
  36 H36            1.5838     2.4711     1.2049 H       
  37 H37            3.7538     2.1819     1.4626 H       
  38 H38            3.5097    -4.6665     0.4806 H       
  39 H39            3.1060    -1.7966    -0.3399 H       
  40 H40            5.3265     0.9404     2.0449 H       
  41 H41            6.2461    -0.8910     3.3706 H       
  42 H42            5.2909    -5.4877     4.6883 H       
  43 H43            6.8147    -5.8329     6.5898 H       
  44 H44            9.2209    -2.5660     5.2623 H       
  45 H45            7.7071    -2.2224     3.3526 H       
  46 H46           -1.9395     1.1742     1.2144 H       
  47 H47           -0.9313     2.5349     1.7623 H       
  48 H48           -1.9887     2.1973    -1.0797 H       
  49 H49           -3.7817     2.6158     0.6298 H       
  50 H50           -2.9103     4.0837     1.1342 H       
  51 H51           -4.5658     4.5563    -0.5215 H       
  52 H52           -0.6633     4.4227     0.2318 H       
@<TRIPOS>BOND
   1    1    2 1
   2    1    5 1
   3    1   30 1
   4    2    3 2
   5    2    6 1
   6    3    4 1
   7    3   35 1
   8    4    5 2
   9    4    8 1
  10    5   36 1
  11    6    7 3
  12    8    9 1
  13    8   10 1
  14    8   16 1
  15    9   27 1
  16    9   28 1
  17    9   29 1
  18   10   37 1
  19   11   12 1
  20   11   19 1
  21   11   20 1
  22   12   13 2
  23   13   14 1
  24   13   38 1
  25   14   15 ar
  26   14   19 ar
  27   15   16 ar
  28   15   39 1
  29   16   17 ar
  30   17   18 ar
  31   17   40 1
  32   18   19 ar
  33   18   41 1
  34   20   21 ar
  35   20   25 ar
  36   21   22 ar
  37   21   42 1
  38   22   23 ar
  39   22   43 1
  40   23   24 ar
  41   23   26 1
  42   24   25 ar
  43   24   44 1
  44   25   45 1
  45   30   31 1
  46   30   46 1
  47   30   47 1
  48   31   32 1
  49   31   34 1
  50   31   48 1
  51   32   33 1
  52   32   49 1
  53   32   50 1
  54   33   51 1
  55   34   52 1

#	End of record

