#	Name: ASD04590748
#	Creating user name:	WinNT
#	Creation time:	15. 06. 2019 20:51

#	Modifying user name:	WinNT
#	Modification time:	15. 06. 2019 20:51

#	Program:	/corina/corina34_cracker 3.40 0067  02.08.2006

@<TRIPOS>MOLECULE
ASD04590748
  59   64    0    0    0
SMALL
NO_CHARGES


@<TRIPOS>ATOM
   1 N1            -0.0732     1.2578    -0.3971 N.ar    
   2 C2            -0.0351    -0.0521    -0.1897 C.ar    
   3 N3             1.0975    -0.7358    -0.1919 N.ar    
   4 C4             2.2579    -0.1227    -0.4059 C.ar    
   5 C5             2.2513     1.2689    -0.6296 C.ar    
   6 C6             1.0354     1.9450    -0.6179 C.ar    
   7 N7             3.5561    -0.5646    -0.4635 N.pl3   
   8 C8             4.4150     0.4912    -0.7190 C.ar    
   9 C9             3.6508     1.6646    -0.8323 C.ar    
  10 C10            5.7958     0.5838    -0.8706 C.ar    
  11 N11            6.3634     1.7495    -1.1140 N.ar    
  12 C12            5.6665     2.8674    -1.2251 C.ar    
  13 C13            4.3052     2.8695    -1.0920 C.ar    
  14 C14            3.9742    -1.9566    -0.2801 C.3     
  15 N15           -1.2235    -0.7278     0.0377 N.pl3   
  16 C16           -2.4115    -0.0215     0.1548 C.ar    
  17 N17           -2.3868     1.3041     0.1507 N.ar    
  18 C18           -3.4893     2.0158     0.2588 C.ar    
  19 C19           -4.7293     1.3873     0.3822 C.ar    
  20 C20           -4.7847    -0.0148     0.3895 C.ar    
  21 C21           -3.6146    -0.7151     0.2693 C.ar    
  22 C22           -5.9643     2.1858     0.5039 C.2     
  23 C23           -8.2665     2.6865    -0.1770 C.3     
  24 N24           -7.0558     1.8522    -0.2129 N.am    
  25 C25            3.5571    -2.4527     1.1155 C.3     
  26 C26            2.6014    -3.6430     0.8927 C.3     
  27 C27            2.9695    -4.1668    -0.5177 C.3     
  28 C28            3.2573    -2.8627    -1.3023 C.3     
  29 C29           -8.6880     2.9950    -1.6177 C.3     
  30 N30           -8.8220     1.7376    -2.3652 N.3     
  31 C31           -7.5362     1.0333    -2.4584 C.3     
  32 C32           -7.0676     0.6444    -1.0522 C.3     
  33 O33           -5.9972     3.1447     1.2508 O.2     
  34 F34            6.5588    -0.5263    -0.7673 F       
  35 H35            0.9973     3.0112    -0.7857 H       
  36 H36            6.1812     3.7956    -1.4247 H       
  37 H37            3.7462     3.7889    -1.1843 H       
  38 H38            5.0545    -2.0405    -0.3988 H       
  39 H39           -1.2246    -1.6948     0.1150 H       
  40 H40           -3.4335     3.0943     0.2523 H       
  41 H41           -5.7294    -0.5298     0.4836 H       
  42 H42           -3.6231    -1.7951     0.2710 H       
  43 H43           -9.0668     2.1487     0.3314 H       
  44 H44           -8.0546     3.6169     0.3497 H       
  45 H45            4.4349    -2.7782     1.6738 H       
  46 H46            3.0437    -1.6578     1.6563 H       
  47 H47            2.7722    -4.4150     1.6429 H       
  48 H48            1.5641    -3.3090     0.9169 H       
  49 H49            3.8581    -4.7967    -0.4761 H       
  50 H50            2.1322    -4.7068    -0.9599 H       
  51 H51            2.3260    -2.4028    -1.6326 H       
  52 H52            3.9068    -3.0654    -2.1539 H       
  53 H53           -9.6438     3.5189    -1.6127 H       
  54 H54           -7.9320     3.6211    -2.0916 H       
  55 H55           -9.5292     1.1464    -1.9546 H       
  56 H56           -7.6568     0.1346    -3.0632 H       
  57 H57           -6.7963     1.6867    -2.9206 H       
  58 H58           -6.0630     0.2247    -1.1041 H       
  59 H59           -7.7526    -0.0896    -0.6279 H       
@<TRIPOS>BOND
   1    1    2 ar
   2    1    6 ar
   3    2    3 ar
   4    2   15 1
   5    3    4 ar
   6    4    5 ar
   7    4    7 1
   8    5    6 ar
   9    5    9 1
  10    6   35 1
  11    7    8 1
  12    7   14 1
  13    8    9 ar
  14    8   10 ar
  15    9   13 ar
  16   10   11 ar
  17   10   34 1
  18   11   12 ar
  19   12   13 ar
  20   12   36 1
  21   13   37 1
  22   14   25 1
  23   14   28 1
  24   14   38 1
  25   15   16 1
  26   15   39 1
  27   16   17 ar
  28   16   21 ar
  29   17   18 ar
  30   18   19 ar
  31   18   40 1
  32   19   20 ar
  33   19   22 1
  34   20   21 ar
  35   20   41 1
  36   21   42 1
  37   22   33 2
  38   22   24 am
  39   23   24 1
  40   23   29 1
  41   23   43 1
  42   23   44 1
  43   24   32 1
  44   25   26 1
  45   25   45 1
  46   25   46 1
  47   26   27 1
  48   26   47 1
  49   26   48 1
  50   27   28 1
  51   27   49 1
  52   27   50 1
  53   28   51 1
  54   28   52 1
  55   29   30 1
  56   29   53 1
  57   29   54 1
  58   30   31 1
  59   30   55 1
  60   31   32 1
  61   31   56 1
  62   31   57 1
  63   32   58 1
  64   32   59 1

#	End of record

