#	Name: ASD01814685
#	Creating user name:	WinNT
#	Creation time:	15. 06. 2019 19:32

#	Modifying user name:	WinNT
#	Modification time:	15. 06. 2019 19:32

#	Program:	/corina/corina34_cracker 3.40 0067  02.08.2006

@<TRIPOS>MOLECULE
ASD01814685
  49   52    0    0    0
SMALL
NO_CHARGES


@<TRIPOS>ATOM
   1 C1             0.3570     1.2183     1.3159 C.2     
   2 N2            -0.8892     1.5907     1.7498 N.pl3   
   3 N3            -1.7160     0.4647     1.6805 N.2     
   4 C4            -1.0134    -0.5530     1.2256 C.2     
   5 C5             0.2830    -0.1293     0.9852 C.2     
   6 C6            -1.1172    -2.0166     0.8733 C.3     
   7 N7             0.1998    -2.4569     0.4028 N.am    
   8 C8             1.0870    -1.2909     0.4603 C.3     
   9 C9            -1.1131     2.8783     2.1454 C.2     
  10 C10           -0.0923     3.7686     2.1010 C.2     
  11 C11            1.1686     3.3504     1.6511 C.2     
  12 N12            1.3573     2.1085     1.2717 N.2     
  13 C13            0.5307    -3.6969    -0.0090 C.2     
  14 C14           -0.4485    -4.7941     0.0952 C.ar    
  15 O15            1.6370    -3.9106    -0.4663 O.2     
  16 C16           -0.6296    -5.6832    -0.9760 C.ar    
  17 C17           -1.5550    -6.7132    -0.8652 C.ar    
  18 C18           -2.2916    -6.8593     0.2926 C.ar    
  19 C19           -2.1151    -5.9834     1.3517 C.ar    
  20 C20           -1.1977    -4.9591     1.2626 C.ar    
  21 N21            0.1122    -5.5335    -2.1405 N.pl3   
  22 C22           -0.3103     5.1964     2.5310 C.3     
  23 C23            2.3101     4.3329     1.5980 C.3     
  24 C24           -2.4771     3.3037     2.6245 C.3     
  25 C25            0.0112    -6.5329    -3.2070 C.3     
  26 C26            0.9232    -6.1331    -4.3686 C.3     
  27 H27           -1.4048    -2.5892     1.7550 H       
  28 H28           -1.8565    -2.1551     0.0845 H       
  29 H29            1.4612    -1.0605    -0.5372 H       
  30 H30            1.9217    -1.4956     1.1308 H       
  31 H31           -1.6985    -7.4002    -1.6861 H       
  32 H32           -3.0104    -7.6613     0.3737 H       
  33 H33           -2.6969    -6.1065     2.2532 H       
  34 H34           -1.0613    -4.2818     2.0927 H       
  35 H35            0.6973    -4.7673    -2.2478 H       
  36 H36           -0.1029     5.2906     3.5969 H       
  37 H37            0.3584     5.8505     1.9715 H       
  38 H38           -1.3442     5.4808     2.3355 H       
  39 H39            2.8455     4.3194     2.5474 H       
  40 H40            2.9907     4.0559     0.7930 H       
  41 H41            1.9196     5.3340     1.4153 H       
  42 H42           -2.5461     3.1559     3.7023 H       
  43 H43           -2.6316     4.3573     2.3917 H       
  44 H44           -3.2401     2.7057     2.1262 H       
  45 H45            0.3172    -7.5061    -2.8231 H       
  46 H46           -1.0197    -6.5881    -3.5567 H       
  47 H47            0.6171    -5.1599    -4.7525 H       
  48 H48            1.9540    -6.0779    -4.0189 H       
  49 H49            0.8480    -6.8767    -5.1620 H       
@<TRIPOS>BOND
   1    1    5 2
   2    1   12 1
   3    1    2 1
   4    2    3 1
   5    2    9 1
   6    3    4 2
   7    4    6 1
   8    4    5 1
   9    5    8 1
  10    6    7 1
  11    6   27 1
  12    6   28 1
  13    7    8 1
  14    7   13 am
  15    8   29 1
  16    8   30 1
  17    9   10 2
  18    9   24 1
  19   10   11 1
  20   10   22 1
  21   11   12 2
  22   11   23 1
  23   13   14 1
  24   13   15 2
  25   14   16 ar
  26   14   20 ar
  27   16   17 ar
  28   16   21 1
  29   17   18 ar
  30   17   31 1
  31   18   19 ar
  32   18   32 1
  33   19   20 ar
  34   19   33 1
  35   20   34 1
  36   21   25 1
  37   21   35 1
  38   22   36 1
  39   22   37 1
  40   22   38 1
  41   23   39 1
  42   23   40 1
  43   23   41 1
  44   24   42 1
  45   24   43 1
  46   24   44 1
  47   25   26 1
  48   25   45 1
  49   25   46 1
  50   26   47 1
  51   26   48 1
  52   26   49 1

#	End of record

