#	Name: ASD01151000
#	Creating user name:	WinNT
#	Creation time:	15. 06. 2019 19:05

#	Modifying user name:	WinNT
#	Modification time:	15. 06. 2019 19:05

#	Program:	/corina/corina34_cracker 3.40 0067  02.08.2006

@<TRIPOS>MOLECULE
ASD01151000
  47   49    0    0    0
SMALL
NO_CHARGES


@<TRIPOS>ATOM
   1 N1             0.1506     1.5194    -1.3816 N.am    
   2 C2             0.1993     0.1598    -1.6389 C.2     
   3 C3            -0.8542    -0.6107    -2.0651 C.2     
   4 N4            -0.5556    -1.9016    -2.2448 N.2     
   5 C5             0.6602    -2.2401    -1.9972 C.2     
   6 S6             1.5830    -0.8329    -1.4848 S.3     
   7 C7            -2.1922    -0.0648    -2.3022 C.2     
   8 O8            -2.4070     1.1188    -2.1215 O.2     
   9 O9            -3.1865    -0.8745    -2.7210 O.3     
  10 C10           -4.4867    -0.2650    -2.9356 C.3     
  11 C11           -5.4786    -1.3312    -3.4050 C.3     
  12 C12            1.2139    -3.6352    -2.1315 C.3     
  13 C13            1.7570    -3.8342    -3.5480 C.3     
  14 C14            1.2574     2.1666    -0.9659 C.2     
  15 C15            1.2055     3.6156    -0.6917 C.ar    
  16 O16            2.2985     1.5566    -0.8170 O.2     
  17 C17            0.0158     4.3260    -0.8593 C.ar    
  18 N18           -0.0306     5.6191    -0.6142 N.ar    
  19 C19            1.0367     6.2877    -0.2041 C.ar    
  20 C20            2.2561     5.6442    -0.0159 C.ar    
  21 C21            2.3498     4.2985    -0.2531 C.ar    
  22 O22            0.9398     7.6178     0.0354 O.3     
  23 C23           -0.2874     8.1945    -0.0544 C.ar    
  24 C24           -1.2140     8.0189     0.9633 C.ar    
  25 C25           -2.4608     8.6062     0.8695 C.ar    
  26 C26           -2.7859     9.3681    -0.2375 C.ar    
  27 C27           -1.8643     9.5447    -1.2531 C.ar    
  28 C28           -0.6140     8.9647    -1.1614 C.ar    
  29 H29           -0.6790     2.0068    -1.5042 H       
  30 H30           -4.8403     0.1747    -2.0030 H       
  31 H31           -4.4027     0.5124    -3.6950 H       
  32 H32           -5.1250    -1.7709    -4.3376 H       
  33 H33           -5.5627    -2.1087    -2.6457 H       
  34 H34           -6.4547    -0.8737    -3.5661 H       
  35 H35            2.0188    -3.7777    -1.4104 H       
  36 H36            0.4225    -4.3601    -1.9407 H       
  37 H37            0.9521    -3.6918    -4.2691 H       
  38 H38            2.5483    -3.1093    -3.7388 H       
  39 H39            2.1575    -4.8433    -3.6451 H       
  40 H40           -0.8732     3.8115    -1.1929 H       
  41 H41            3.1198     6.2000     0.3182 H       
  42 H42            3.2852     3.7768    -0.1142 H       
  43 H43           -0.9607     7.4232     1.8279 H       
  44 H44           -3.1823     8.4698     1.6614 H       
  45 H45           -3.7615     9.8259    -0.3092 H       
  46 H46           -2.1208    10.1404    -2.1168 H       
  47 H47            0.1056     9.1033    -1.9547 H       
@<TRIPOS>BOND
   1    1    2 1
   2    1   14 am
   3    1   29 1
   4    2    3 2
   5    2    6 1
   6    3    4 1
   7    3    7 1
   8    4    5 2
   9    5    6 1
  10    5   12 1
  11    7    8 2
  12    7    9 1
  13    9   10 1
  14   10   11 1
  15   10   30 1
  16   10   31 1
  17   11   32 1
  18   11   33 1
  19   11   34 1
  20   12   13 1
  21   12   35 1
  22   12   36 1
  23   13   37 1
  24   13   38 1
  25   13   39 1
  26   14   15 1
  27   14   16 2
  28   15   17 ar
  29   15   21 ar
  30   17   18 ar
  31   17   40 1
  32   18   19 ar
  33   19   20 ar
  34   19   22 1
  35   20   21 ar
  36   20   41 1
  37   21   42 1
  38   22   23 1
  39   23   24 ar
  40   23   28 ar
  41   24   25 ar
  42   24   43 1
  43   25   26 ar
  44   25   44 1
  45   26   27 ar
  46   26   45 1
  47   27   28 ar
  48   27   46 1
  49   28   47 1

#	End of record

