#	Name: ASD03091237
#	Creating user name:	WinNT
#	Creation time:	15. 06. 2019 20:30

#	Modifying user name:	WinNT
#	Modification time:	15. 06. 2019 20:30

#	Program:	/corina/corina34_cracker 3.40 0067  02.08.2006

@<TRIPOS>MOLECULE
ASD03091237
  51   55    0    0    0
SMALL
NO_CHARGES


@<TRIPOS>ATOM
   1 N1             0.1193     1.0913     0.1180 N.2     
   2 C2             0.3367    -0.1986     0.1215 C.2     
   3 N3             1.5910    -0.7448     0.0696 N.am    
   4 C4             2.6831     0.0525     0.0107 C.2     
   5 C5             2.4624     1.5063     0.0053 C.ar    
   6 C6             3.5216     2.4091    -0.0537 C.ar    
   7 C7             3.2560     3.7681    -0.0565 C.ar    
   8 C8             1.9411     4.2307    -0.0010 C.ar    
   9 C9             0.8929     3.3582     0.0576 C.ar    
  10 C10            1.1317     1.9803     0.0619 C.ar    
  11 O11            3.8056    -0.4161    -0.0355 O.2     
  12 C12            1.7521    -2.2009     0.0783 C.3     
  13 C13           -0.8253    -1.1084     0.1847 C.ar    
  14 C14           -1.0217    -2.0673    -0.8139 C.ar    
  15 C15           -2.1111    -2.9157    -0.7480 C.ar    
  16 C16           -3.0054    -2.8172     0.3019 C.ar    
  17 C17           -2.8168    -1.8687     1.2947 C.ar    
  18 C18           -1.7291    -1.0186     1.2447 C.ar    
  19 F19           -3.6960    -1.7788     2.3165 F       
  20 F20           -0.1492    -2.1641    -1.8408 F       
  21 N21            6.8280     5.8735    -1.1246 N.3     
  22 C22            6.7770     4.9519     0.0206 C.3     
  23 C23            5.6066     3.9904    -0.1153 C.3     
  24 N24            4.3119     4.6819    -0.1150 N.3     
  25 C25            4.1897     5.5532    -1.2921 C.3     
  26 C26            4.6230     6.9710    -0.9503 C.3     
  27 C27            6.1231     7.1212    -0.7974 C.3     
  28 C28            6.4376     5.3252    -2.4057 C.3     
  29 C29            4.9668     4.9443    -2.4449 C.3     
  30 H30            4.5402     2.0526    -0.0964 H       
  31 H31            1.7499     5.2937    -0.0040 H       
  32 H32           -0.1196     3.7315     0.1008 H       
  33 H33            1.7063    -2.5776    -0.9435 H       
  34 H34            2.7164    -2.4571     0.5171 H       
  35 H35            0.9535    -2.6513     0.6678 H       
  36 H36           -2.2642    -3.6568    -1.5185 H       
  37 H37           -3.8551    -3.4822     0.3484 H       
  38 H38           -1.5808    -0.2832     2.0216 H       
  39 H39            7.7057     4.3831     0.0654 H       
  40 H40            6.6643     5.5271     0.9396 H       
  41 H41            5.7110     3.4369    -1.0485 H       
  42 H42            5.6305     3.2855     0.7157 H       
  43 H43            3.1398     5.5811    -1.5834 H       
  44 H44            4.2836     7.6403    -1.7409 H       
  45 H45            4.1451     7.2669    -0.0165 H       
  46 H46            6.3499     7.3986     0.2321 H       
  47 H47            6.4713     7.9116    -1.4624 H       
  48 H48            6.6317     6.0661    -3.1813 H       
  49 H49            7.0380     4.4383    -2.6084 H       
  50 H50            4.8805     3.8588    -2.3961 H       
  51 H51            4.5361     5.2904    -3.3845 H       
@<TRIPOS>BOND
   1    1    2 2
   2    1   10 1
   3    2    3 1
   4    2   13 1
   5    3    4 am
   6    3   12 1
   7    4    5 1
   8    4   11 2
   9    5    6 ar
  10    5   10 ar
  11    6    7 ar
  12    6   30 1
  13    7    8 ar
  14    7   24 1
  15    8    9 ar
  16    8   31 1
  17    9   10 ar
  18    9   32 1
  19   12   33 1
  20   12   34 1
  21   12   35 1
  22   13   14 ar
  23   13   18 ar
  24   14   15 ar
  25   14   20 1
  26   15   16 ar
  27   15   36 1
  28   16   17 ar
  29   16   37 1
  30   17   18 ar
  31   17   19 1
  32   18   38 1
  33   21   22 1
  34   21   27 1
  35   21   28 1
  36   22   23 1
  37   22   39 1
  38   22   40 1
  39   23   24 1
  40   23   41 1
  41   23   42 1
  42   24   25 1
  43   25   26 1
  44   25   29 1
  45   25   43 1
  46   26   27 1
  47   26   44 1
  48   26   45 1
  49   27   46 1
  50   27   47 1
  51   28   29 1
  52   28   48 1
  53   28   49 1
  54   29   50 1
  55   29   51 1

#	End of record

