#	Name: ASD02610002
#	Creating user name:	WinNT
#	Creation time:	15. 06. 2019 20:25

#	Modifying user name:	WinNT
#	Modification time:	15. 06. 2019 20:25

#	Program:	/corina/corina34_cracker 3.40 0067  02.08.2006

@<TRIPOS>MOLECULE
ASD02610002
  96   98    0    0    0
SMALL
NO_CHARGES


@<TRIPOS>ATOM
   1 C1             0.3073     1.1272    -0.2543 C.3     
   2 C2             0.6785    -0.3679    -0.3597 C.3     
   3 C3             2.1828    -0.4240    -0.4484 C.2     
   4 C4             2.7192     0.7584    -0.3705 C.2     
   5 C5             1.6632     1.8040    -0.1272 C.3     
   6 C6             4.1644     1.1205    -0.6071 C.3     
   7 C7             4.5471     2.2901     0.2728 C.3     
   8 C8             4.2439     3.6389    -0.2956 C.3     
   9 C9             2.8138     4.0488    -0.0511 C.3     
  10 C10            1.8466     3.1136    -0.7786 C.3     
  11 O11            0.0864    -0.9461    -1.5527 O.3     
  12 C12           -0.2331    -2.2548    -1.5047 C.2     
  13 O13           -0.0226    -2.8950    -0.4934 O.2     
  14 C14           -0.8360    -2.9074    -2.6753 C.2     
  15 C15           -1.0970    -2.1135    -3.9293 C.3     
  16 C16           -1.1514    -4.1994    -2.6278 C.2     
  17 C17           -0.8904    -4.9932    -1.3738 C.3     
  18 C18            2.9709    -1.6985    -0.6077 C.3     
  19 O19           -0.5030     1.3740     0.9250 O.3     
  20 C20           -1.8351     1.3061     0.7741 C.2     
  21 C21           -2.7404     1.5505     1.9538 C.3     
  22 O22           -2.3083     1.0490    -0.3075 O.2     
  23 H23            1.7501     2.0220     0.9372 H       
  24 O24            0.5537     3.7680    -0.8705 O.3     
  25 C25            2.3701     2.8814    -2.1974 C.3     
  26 C26           -0.0405     4.1082     0.2840 C.2     
  27 O27            4.4894     3.6138    -1.7265 O.3     
  28 C28            4.8766     4.7646    -2.2986 C.2     
  29 C29            5.1498     4.8152    -3.7798 C.3     
  30 O30            5.0061     5.7600    -1.6261 O.2     
  31 O31            5.0943     0.0626    -0.2546 O.3     
  32 C32            6.2882     0.6540    -0.0046 C.2     
  33 C33            6.0227     2.0258     0.5990 C.3     
  34 H34            4.3078     1.3882    -1.6539 H       
  35 O35            3.8109     2.1672     1.4915 O.3     
  36 O36            6.8562     3.0127    -0.0121 O.3     
  37 C37            6.2418     1.9982     2.1129 C.3     
  38 O38            7.3756     0.1747    -0.2233 O.2     
  39 C39           -4.1994     1.4139     1.5140 C.3     
  40 C40           -5.1186     1.6621     2.7117 C.3     
  41 C41           -6.5776     1.5255     2.2718 C.3     
  42 C42           -7.4967     1.7737     3.4695 C.3     
  43 C43           -8.9558     1.6371     3.0296 C.3     
  44 C44           -9.8749     1.8852     4.2273 C.3     
  45 C45            5.5717     6.2325    -4.1725 C.3     
  46 C46            5.8491     6.2838    -5.6763 C.3     
  47 C47           -1.3261     4.8944     0.2666 C.3     
  48 O48            0.4553     3.7841     1.3371 O.2     
  49 H49           -0.2079     1.4614    -1.1548 H       
  50 H50            0.3353    -0.9024     0.5262 H       
  51 H51            4.9062     4.3734     0.1628 H       
  52 H52            2.6090     4.0144     1.0189 H       
  53 H53            2.6663     5.0672    -0.4108 H       
  54 H54           -0.2235    -2.1635    -4.5794 H       
  55 H55           -1.9608    -2.5285    -4.4488 H       
  56 H56           -1.2956    -1.0744    -3.6668 H       
  57 H57           -1.5945    -4.6790    -3.4881 H       
  58 H58            0.1755    -4.9739    -1.1468 H       
  59 H59           -1.4464    -4.5558    -0.5445 H       
  60 H60           -1.2115    -6.0241    -1.5229 H       
  61 H61            2.2869    -2.5462    -0.6470 H       
  62 H62            3.5492    -1.6551    -1.5307 H       
  63 H63            3.6469    -1.8160     0.2393 H       
  64 H64           -2.5262     0.8198     2.7338 H       
  65 H65           -2.5700     2.5553     2.3406 H       
  66 H66            1.5916     2.4133    -2.7998 H       
  67 H67            2.6491     3.8364    -2.6426 H       
  68 H68            3.2425     2.2290    -2.1606 H       
  69 H69            5.9496     4.1167    -4.0258 H       
  70 H70            4.2470     4.5406    -4.3254 H       
  71 H71            3.9852     2.8729     2.1291 H       
  72 H72            7.7999     2.8930     0.1620 H       
  73 H73            5.6352     1.2069     2.5535 H       
  74 H74            7.2943     1.8095     2.3244 H       
  75 H75            5.9519     2.9584     2.5396 H       
  76 H76           -4.4137     2.1446     0.7340 H       
  77 H77           -4.3698     0.4092     1.1272 H       
  78 H78           -4.9043     0.9314     3.4916 H       
  79 H79           -4.9482     2.6669     3.0984 H       
  80 H80           -6.7919     2.2562     1.4918 H       
  81 H81           -6.7480     0.5208     1.8851 H       
  82 H82           -7.2825     1.0430     4.2494 H       
  83 H83           -7.3264     2.7784     3.8562 H       
  84 H84           -9.1700     2.3678     2.2496 H       
  85 H85           -9.1261     0.6323     2.6429 H       
  86 H86           -9.6607     1.1546     5.0072 H       
  87 H87           -9.7045     2.8900     4.6140 H       
  88 H88          -10.9143     1.7879     3.9139 H       
  89 H89            4.7719     6.9310    -3.9265 H       
  90 H90            6.4745     6.5071    -3.6269 H       
  91 H91            6.6489     5.5853    -5.9223 H       
  92 H92            4.9463     6.0092    -6.2218 H       
  93 H93            6.1497     7.2935    -5.9560 H       
  94 H94           -2.1719     4.2072     0.2449 H       
  95 H95           -1.3847     5.5147     1.1610 H       
  96 H96           -1.3515     5.5298    -0.6186 H       
@<TRIPOS>BOND
   1    1    2 1
   2    1    5 1
   3    1   19 1
   4    1   49 1
   5    2    3 1
   6    2   11 1
   7    2   50 1
   8    3    4 2
   9    3   18 1
  10    4    5 1
  11    4    6 1
  12    5   10 1
  13    5   23 1
  14    6    7 1
  15    6   31 1
  16    6   34 1
  17    7   33 1
  18    7   35 1
  19    7    8 1
  20    8    9 1
  21    8   27 1
  22    8   51 1
  23    9   10 1
  24    9   52 1
  25    9   53 1
  26   10   24 1
  27   10   25 1
  28   11   12 1
  29   12   13 2
  30   12   14 1
  31   14   15 1
  32   14   16 2
  33   15   54 1
  34   15   55 1
  35   15   56 1
  36   16   17 1
  37   16   57 1
  38   17   58 1
  39   17   59 1
  40   17   60 1
  41   18   61 1
  42   18   62 1
  43   18   63 1
  44   19   20 1
  45   20   21 1
  46   20   22 2
  47   21   39 1
  48   21   64 1
  49   21   65 1
  50   24   26 1
  51   25   66 1
  52   25   67 1
  53   25   68 1
  54   26   47 1
  55   26   48 2
  56   27   28 1
  57   28   29 1
  58   28   30 2
  59   29   45 1
  60   29   69 1
  61   29   70 1
  62   31   32 1
  63   32   33 1
  64   32   38 2
  65   33   36 1
  66   33   37 1
  67   35   71 1
  68   36   72 1
  69   37   73 1
  70   37   74 1
  71   37   75 1
  72   39   40 1
  73   39   76 1
  74   39   77 1
  75   40   41 1
  76   40   78 1
  77   40   79 1
  78   41   42 1
  79   41   80 1
  80   41   81 1
  81   42   43 1
  82   42   82 1
  83   42   83 1
  84   43   44 1
  85   43   84 1
  86   43   85 1
  87   44   86 1
  88   44   87 1
  89   44   88 1
  90   45   46 1
  91   45   89 1
  92   45   90 1
  93   46   91 1
  94   46   92 1
  95   46   93 1
  96   47   94 1
  97   47   95 1
  98   47   96 1

#	End of record

