#	Name: ASD01914538
#	Creating user name:	WinNT
#	Creation time:	15. 06. 2019 20:03

#	Modifying user name:	WinNT
#	Modification time:	15. 06. 2019 20:03

#	Program:	/corina/corina34_cracker 3.40 0067  02.08.2006

@<TRIPOS>MOLECULE
ASD01914538
  71   76    0    0    0
SMALL
NO_CHARGES


@<TRIPOS>ATOM
   1 C1             0.1285     1.0270     0.1202 C.ar    
   2 C2             0.2368    -0.3540    -0.0101 C.ar    
   3 C3             1.4943    -0.9251    -0.1475 C.ar    
   4 C4             2.6010    -0.0958    -0.1499 C.ar    
   5 C5             2.4223     1.2807    -0.0152 C.ar    
   6 N6             1.2126     1.7947     0.1138 N.ar    
   7 C7            -1.2092     1.6478     0.2613 C.2     
   8 O8            -2.2051     0.9515     0.2628 O.2     
   9 N9            -1.3217     2.9849     0.3879 N.am    
  10 C10           -2.6445     3.5988     0.5274 C.3     
  11 C11           -2.4920     5.1160     0.6531 C.3     
  12 C12           -3.8735     5.7571     0.7988 C.3     
  13 C13           -4.5611     5.2082     2.0506 C.3     
  14 C14           -4.7136     3.6910     1.9249 C.3     
  15 C15           -5.5601     3.3639     0.6931 C.3     
  16 C16           -4.8726     3.9128    -0.5587 C.3     
  17 C17           -3.4911     3.2717    -0.7044 C.3     
  18 C18           -4.7201     5.4300    -0.4329 C.3     
  19 C19           -3.3321     3.0499     1.7792 C.3     
  20 N20           -3.7275     7.2098     0.9192 N.am    
  21 C21           -4.8193     7.9876     1.0586 C.2     
  22 O22           -5.9248     7.4839     1.0844 O.2     
  23 C23           -4.6716     9.4569     1.1804 C.ar    
  24 C24           -5.8040    10.2554     1.3242 C.ar    
  25 C25           -5.6499    11.6280     1.4374 C.ar    
  26 C26           -4.3680    12.1545     1.4028 C.ar    
  27 C27           -3.2867    11.3005     1.2573 C.ar    
  28 N28           -3.4612    10.0007     1.1570 N.ar    
  29 C29           -1.8912    11.8681     1.2191 C.3     
  30 N30            3.5295     2.1208    -0.0167 N.3     
  31 C31            3.9488     2.4398    -1.3938 C.3     
  32 C32            3.9353     3.9768    -1.5314 C.3     
  33 C33            4.0586     4.4603    -0.0624 C.3     
  34 C34            3.2361     3.3853     0.6909 C.3     
  35 C35            2.9703     1.8192    -2.3929 C.3     
  36 O36            1.6917     2.4429    -2.2575 O.3     
  37 H37           -0.6472    -0.9743    -0.0040 H       
  38 H38            1.6062    -1.9944    -0.2499 H       
  39 H39            3.5930    -0.5098    -0.2547 H       
  40 H40           -0.5267     3.5407     0.3866 H       
  41 H41           -1.8889     5.3490     1.5307 H       
  42 H42           -2.0022     5.5070    -0.2386 H       
  43 H43           -3.9580     5.4412     2.9281 H       
  44 H44           -5.5453     5.6649     2.1544 H       
  45 H45           -5.2034     3.2999     2.8166 H       
  46 H46           -5.6688     2.2830     0.6035 H       
  47 H47           -6.5443     3.8206     0.7969 H       
  48 H48           -5.4757     3.6798    -1.4362 H       
  49 H49           -3.0012     3.6627    -1.5961 H       
  50 H50           -3.5997     2.1908    -0.7939 H       
  51 H51           -5.7043     5.8867    -0.3291 H       
  52 H52           -4.2302     5.8210    -1.3247 H       
  53 H53           -3.4407     1.9690     1.6896 H       
  54 H54           -2.7290     3.2829     2.6567 H       
  55 H55           -2.8450     7.6119     0.8987 H       
  56 H56           -6.7881     9.8111     1.3468 H       
  57 H57           -6.5090    12.2728     1.5496 H       
  58 H58           -4.2136    13.2200     1.4881 H       
  59 H59           -1.4896    11.9134     2.2314 H       
  60 H60           -1.2561    11.2301     0.6045 H       
  61 H61           -1.9185    12.8713     0.7938 H       
  62 H62            4.9549     2.0604    -1.5724 H       
  63 H63            4.7853     4.3183    -2.1222 H       
  64 H64            2.9976     4.3161    -1.9714 H       
  65 H65            5.0986     4.4560     0.2641 H       
  66 H66            3.6161     5.4486     0.0618 H       
  67 H67            2.1717     3.6135     0.6346 H       
  68 H68            3.5569     3.3216     1.7306 H       
  69 H69            3.3421     1.9689    -3.4065 H       
  70 H70            2.8765     0.7515    -2.1942 H       
  71 H71            1.0200     2.0982    -2.8617 H       
@<TRIPOS>BOND
   1    1    2 ar
   2    1    6 ar
   3    1    7 1
   4    2    3 ar
   5    2   37 1
   6    3    4 ar
   7    3   38 1
   8    4    5 ar
   9    4   39 1
  10    5    6 ar
  11    5   30 1
  12    7    8 2
  13    7    9 am
  14    9   10 1
  15    9   40 1
  16   10   11 1
  17   10   17 1
  18   10   19 1
  19   11   12 1
  20   11   41 1
  21   11   42 1
  22   12   13 1
  23   12   18 1
  24   12   20 1
  25   13   14 1
  26   13   43 1
  27   13   44 1
  28   14   15 1
  29   14   19 1
  30   14   45 1
  31   15   16 1
  32   15   46 1
  33   15   47 1
  34   16   17 1
  35   16   18 1
  36   16   48 1
  37   17   49 1
  38   17   50 1
  39   18   51 1
  40   18   52 1
  41   19   53 1
  42   19   54 1
  43   20   21 am
  44   20   55 1
  45   21   22 2
  46   21   23 1
  47   23   24 ar
  48   23   28 ar
  49   24   25 ar
  50   24   56 1
  51   25   26 ar
  52   25   57 1
  53   26   27 ar
  54   26   58 1
  55   27   28 ar
  56   27   29 1
  57   29   59 1
  58   29   60 1
  59   29   61 1
  60   30   31 1
  61   30   34 1
  62   31   32 1
  63   31   35 1
  64   31   62 1
  65   32   33 1
  66   32   63 1
  67   32   64 1
  68   33   34 1
  69   33   65 1
  70   33   66 1
  71   34   67 1
  72   34   68 1
  73   35   36 1
  74   35   69 1
  75   35   70 1
  76   36   71 1

#	End of record

