#	Name: ASD04880337
#	Creating user name:	WinNT
#	Creation time:	15. 06. 2019 20:53

#	Modifying user name:	WinNT
#	Modification time:	15. 06. 2019 20:53

#	Program:	/corina/corina34_cracker 3.40 0067  02.08.2006

@<TRIPOS>MOLECULE
ASD04880337
  41   43    0    0    0
SMALL
NO_CHARGES


@<TRIPOS>ATOM
   1 C1            -0.0112     1.3873     0.0513 C.ar    
   2 C2             1.1765     2.0952     0.0835 C.ar    
   3 C3             2.3833     1.4267     0.0555 C.ar    
   4 C4             2.4051     0.0324    -0.0050 C.ar    
   5 C5             1.2039    -0.6781    -0.0368 C.ar    
   6 C6             0.0020     0.0027    -0.0088 C.ar    
   7 C7             3.6948    -0.6888    -0.0356 C.2     
   8 O8             3.7146    -1.9024     0.0376 O.2     
   9 N9             4.8489    -0.0014    -0.1447 N.am    
  10 C10            6.2000    -0.5795    -0.0686 C.3     
  11 N11            4.9576     1.3719    -0.3540 N.2     
  12 C12            6.1709     1.7993    -0.4238 C.2     
  13 C13            7.1257     0.6391    -0.2545 C.3     
  14 C14            6.5675     3.2034    -0.6390 C.ar    
  15 C15            7.9199     3.5488    -0.6974 C.ar    
  16 C16            5.5929     4.1912    -0.7908 C.ar    
  17 C17            5.9739     5.5085    -0.9927 C.ar    
  18 C18            7.3228     5.8422    -1.0438 C.ar    
  19 C19            8.2880     4.8635    -0.8988 C.ar    
  20 F20           -1.1621    -0.6823    -0.0396 F       
  21 N21            5.0026     6.5009    -1.1452 N.pl3   
  22 C22            3.5814     6.1494    -1.0918 C.3     
  23 C23            5.4053     7.8933    -1.3585 C.3     
  24 H24           -0.9529     1.9155     0.0776 H       
  25 H25            1.1594     3.1740     0.1303 H       
  26 H26            3.3095     1.9816     0.0800 H       
  27 H27            1.2141    -1.7570    -0.0840 H       
  28 H28            6.3652    -1.0417     0.9046 H       
  29 H29            6.3533    -1.3032    -0.8691 H       
  30 H30            7.7503     0.7836     0.6270 H       
  31 H31            7.7420     0.5180    -1.1453 H       
  32 H32            8.6772     2.7872    -0.5845 H       
  33 H33            4.5457     3.9299    -0.7515 H       
  34 H34            7.6174     6.8691    -1.2019 H       
  35 H35            9.3340     5.1293    -0.9391 H       
  36 H36            3.2286     6.2180    -0.0628 H       
  37 H37            3.0131     6.8377    -1.7174 H       
  38 H38            3.4452     5.1309    -1.4555 H       
  39 H39            5.5055     8.0828    -2.4272 H       
  40 H40            4.6492     8.5582    -0.9409 H       
  41 H41            6.3607     8.0747    -0.8662 H       
@<TRIPOS>BOND
   1    1    2 ar
   2    1    6 ar
   3    1   24 1
   4    2    3 ar
   5    2   25 1
   6    3    4 ar
   7    3   26 1
   8    4    5 ar
   9    4    7 1
  10    5    6 ar
  11    5   27 1
  12    6   20 1
  13    7    8 2
  14    7    9 am
  15    9   10 1
  16    9   11 1
  17   10   13 1
  18   10   28 1
  19   10   29 1
  20   11   12 2
  21   12   13 1
  22   12   14 1
  23   13   30 1
  24   13   31 1
  25   14   15 ar
  26   14   16 ar
  27   15   19 ar
  28   15   32 1
  29   16   17 ar
  30   16   33 1
  31   17   18 ar
  32   17   21 1
  33   18   19 ar
  34   18   34 1
  35   19   35 1
  36   21   22 1
  37   21   23 1
  38   22   36 1
  39   22   37 1
  40   22   38 1
  41   23   39 1
  42   23   40 1
  43   23   41 1

#	End of record

