#	Name: ASD04880923
#	Creating user name:	WinNT
#	Creation time:	15. 06. 2019 20:53

#	Modifying user name:	WinNT
#	Modification time:	15. 06. 2019 20:53

#	Program:	/corina/corina34_cracker 3.40 0067  02.08.2006

@<TRIPOS>MOLECULE
ASD04880923
  78   82    0    0    0
SMALL
NO_CHARGES


@<TRIPOS>ATOM
   1 C1            -0.4714     2.8325     2.0185 C.ar    
   2 C2            -0.6710     1.9768     0.9510 C.ar    
   3 C3             0.3514     1.7399     0.0501 C.ar    
   4 C4             1.5753     2.3577     0.2143 C.ar    
   5 C5             1.7792     3.2181     1.2858 C.ar    
   6 C6             0.7504     3.4538     2.1886 C.ar    
   7 N7             3.0162     3.8443     1.4551 N.3     
   8 C8             3.2946     4.7686     0.3471 C.3     
   9 C9             4.6179     5.4915     0.6095 C.3     
  10 N10            5.6948     4.5013     0.7487 N.3     
  11 C11            5.4164     3.5770     1.8568 C.3     
  12 C12            4.0931     2.8541     1.5944 C.3     
  13 C13            6.9280     5.1256     0.9175 C.ar    
  14 C14            7.4808     5.8725    -0.1265 C.ar    
  15 C15            8.7049     6.4920     0.0413 C.ar    
  16 C16            9.3861     6.3693     1.2556 C.ar    
  17 C17            8.8275     5.6210     2.2955 C.ar    
  18 C18            7.6050     5.0099     2.1262 C.ar    
  19 C19            0.9670     4.3864     3.3525 C.3     
  20 N20            6.7950     5.9926    -1.3422 N.am    
  21 C21            6.9883     7.0756    -2.1208 C.2     
  22 C22            6.1980     7.2501    -3.3435 C.2     
  23 O23            7.8190     7.9088    -1.8090 O.2     
  24 C24           10.6931     7.0285     1.4391 C.2     
  25 O25           11.1785     7.6790     0.5337 O.2     
  26 N26           11.3492     6.9096     2.6104 N.am    
  27 C27           12.6471     7.5641     2.7927 C.3     
  28 C28           13.1719     7.2729     4.2000 C.3     
  29 C29           14.5742     7.8653     4.3541 C.3     
  30 N30           15.0405     7.6674     5.7330 N.3     
  31 C31           16.3439     8.3220     5.9491 C.3     
  32 C32           16.1724     9.3047     7.1265 C.3     
  33 C33           14.9381     8.7389     7.8770 C.3     
  34 C34           14.0709     8.2172     6.7043 C.3     
  35 C35            6.2923     8.2949    -4.2177 C.2     
  36 C36            5.3571     8.0544    -5.2364 C.2     
  37 C37            4.7407     6.8881    -4.9432 C.2     
  38 O38            5.2542     6.4036    -3.8049 O.3     
  39 C39           15.5320     7.1669     3.3867 C.3     
  40 H40           -1.2732     3.0188     2.7176 H       
  41 H41           -1.6272     1.4921     0.8205 H       
  42 H42            0.1923     1.0706    -0.7825 H       
  43 H43            2.3734     2.1719    -0.4894 H       
  44 H44            3.3651     4.2081    -0.5851 H       
  45 H45            2.4895     5.4996     0.2723 H       
  46 H46            4.8408     6.1563    -0.2250 H       
  47 H47            4.5383     6.0738     1.5275 H       
  48 H48            6.2215     2.8460     1.9316 H       
  49 H49            5.3459     4.1375     2.7890 H       
  50 H50            3.8702     2.1893     2.4289 H       
  51 H51            4.1727     2.2718     0.6764 H       
  52 H52            9.1342     7.0694    -0.7642 H       
  53 H53            9.3530     5.5255     3.2342 H       
  54 H54            7.1733     4.4358     2.9327 H       
  55 H55            1.2577     3.8099     4.2307 H       
  56 H56            1.7561     5.0970     3.1067 H       
  57 H57            0.0438     4.9267     3.5618 H       
  58 H58            6.1811     5.2963    -1.6236 H       
  59 H59           10.9620     6.3906     3.3327 H       
  60 H60           13.3533     7.1823     2.0554 H       
  61 H61           12.5327     8.6403     2.6630 H       
  62 H62           12.5051     7.7214     4.9365 H       
  63 H63           13.2137     6.1950     4.3565 H       
  64 H64           14.5448     8.9316     4.1300 H       
  65 H65           17.0977     7.5747     6.1966 H       
  66 H66           16.6388     8.8662     5.0518 H       
  67 H67           17.0527     9.2935     7.7692 H       
  68 H68           15.9730    10.3123     6.7617 H       
  69 H69           15.2253     7.9248     8.5425 H       
  70 H70           14.4204     9.5256     8.4258 H       
  71 H71           13.5072     9.0354     6.2560 H       
  72 H72           13.3955     7.4349     7.0505 H       
  73 H73            6.9573     9.1423    -4.1401 H       
  74 H74            5.1658     8.6833    -6.0933 H       
  75 H75            3.9652     6.4212    -5.5321 H       
  76 H76           15.1859     7.3137     2.3636 H       
  77 H77           16.5309     7.5889     3.4965 H       
  78 H78           15.5613     6.1006     3.6109 H       
@<TRIPOS>BOND
   1    1    2 ar
   2    1    6 ar
   3    1   40 1
   4    2    3 ar
   5    2   41 1
   6    3    4 ar
   7    3   42 1
   8    4    5 ar
   9    4   43 1
  10    5    6 ar
  11    5    7 1
  12    6   19 1
  13    7    8 1
  14    7   12 1
  15    8    9 1
  16    8   44 1
  17    8   45 1
  18    9   10 1
  19    9   46 1
  20    9   47 1
  21   10   11 1
  22   10   13 1
  23   11   12 1
  24   11   48 1
  25   11   49 1
  26   12   50 1
  27   12   51 1
  28   13   14 ar
  29   13   18 ar
  30   14   15 ar
  31   14   20 1
  32   15   16 ar
  33   15   52 1
  34   16   17 ar
  35   16   24 1
  36   17   18 ar
  37   17   53 1
  38   18   54 1
  39   19   55 1
  40   19   56 1
  41   19   57 1
  42   20   21 am
  43   20   58 1
  44   21   22 1
  45   21   23 2
  46   22   35 2
  47   22   38 1
  48   24   25 2
  49   24   26 am
  50   26   27 1
  51   26   59 1
  52   27   28 1
  53   27   60 1
  54   27   61 1
  55   28   29 1
  56   28   62 1
  57   28   63 1
  58   29   30 1
  59   29   39 1
  60   29   64 1
  61   30   31 1
  62   30   34 1
  63   31   32 1
  64   31   65 1
  65   31   66 1
  66   32   33 1
  67   32   67 1
  68   32   68 1
  69   33   34 1
  70   33   69 1
  71   33   70 1
  72   34   71 1
  73   34   72 1
  74   35   36 1
  75   35   73 1
  76   36   37 2
  77   36   74 1
  78   37   38 1
  79   37   75 1
  80   39   76 1
  81   39   77 1
  82   39   78 1

#	End of record

