#	Name: ASD04500017
#	Creating user name:	WinNT
#	Creation time:	15. 06. 2019 20:49

#	Modifying user name:	WinNT
#	Modification time:	15. 06. 2019 20:49

#	Program:	/corina/corina34_cracker 3.40 0067  02.08.2006

@<TRIPOS>MOLECULE
ASD04500017
  87   93    0    0    0
SMALL
NO_CHARGES


@<TRIPOS>ATOM
   1 C1             1.1247    -0.7532     1.4975 C.ar    
   2 C2             1.4063    -2.0893     1.5422 C.ar    
   3 C3             2.7136    -2.5404     1.6716 C.ar    
   4 C4             3.7584    -1.6462     1.7574 C.ar    
   5 C5             3.4941    -0.2785     1.7134 C.ar    
   6 C6             2.1631     0.1792     1.5822 C.ar    
   7 N7             1.9250     1.5052     1.5413 N.2     
   8 C8             4.5676     0.7221     1.8000 C.2     
   9 N9             4.2110     2.0267     1.7478 N.am    
  10 C10            2.8953     2.3804     1.6200 C.2     
  11 O11            5.7330     0.3899     1.9147 O.2     
  12 C12            2.5543     3.8159     1.5673 C.ar    
  13 C13            1.4960     5.6606     0.4514 C.ar    
  14 C14            1.8121     4.3207     0.4968 C.ar    
  15 C15            2.9681     4.6721     2.5908 C.ar    
  16 C16            2.6479     6.0108     2.5379 C.ar    
  17 C17            1.9144     6.5100     1.4685 C.ar    
  18 C18            5.2397     3.0665     1.8301 C.3     
  19 N19           10.0872     7.1135    -2.1087 N.pl3   
  20 N20            9.9377     8.2831    -1.5927 N.2     
  21 N21           11.0354     8.9486    -1.6761 N.2     
  22 C22           11.9584     8.1878    -2.2750 C.2     
  23 C23           11.3596     7.0072    -2.5569 C.2     
  24 C24           13.3845     8.5703    -2.5770 C.3     
  25 N25           13.4371     9.2931    -3.8501 N.am    
  26 C26           13.1903    10.6388    -3.8787 C.2     
  27 N27           13.2207    11.3470    -4.9792 N.2     
  28 C28           13.5012    10.7878    -6.1732 C.ar    
  29 C29           13.7697     9.4012    -6.2394 C.ar    
  30 C30           13.7350     8.6269    -4.9899 C.2     
  31 C31           13.5332    11.5476    -7.3460 C.ar    
  32 C32           13.8243    10.9383    -8.5455 C.ar    
  33 C33           14.0874     9.5761    -8.6063 C.ar    
  34 C34           14.0658     8.8061    -7.4637 C.ar    
  35 C35           12.8746    11.3237    -2.6094 C.ar    
  36 C36           13.7499    11.2270    -1.5249 C.ar    
  37 C37           13.4517    11.8674    -0.3424 C.ar    
  38 C38           12.2821    12.6089    -0.2273 C.ar    
  39 C39           11.4089    12.7075    -1.3037 C.ar    
  40 C40           11.7026    12.0748    -2.4915 C.ar    
  41 O41           13.9621     7.4311    -4.9815 O.2     
  42 C42            5.7964     3.3450     0.4324 C.3     
  43 C43            6.8708     4.4309     0.5184 C.3     
  44 C44            7.4275     4.7093    -0.8793 C.3     
  45 C45            8.5018     5.7953    -0.7934 C.3     
  46 C46            9.0585     6.0737    -2.1910 C.3     
  47 S47            0.2816     8.1785     2.0935 S.o2    
  48 O48            0.6051     7.7230     3.4000 O.2     
  49 O49           -0.5654     7.3676     1.2908 O.2     
  50 O50            0.3018     9.5777     1.8465 O.2     
  51 O51            1.6012     7.8301     1.4199 O.3     
  52 S52           12.5335    14.6577     1.0296 S.o2    
  53 O53           11.8451    15.1986    -0.0897 O.2     
  54 O54           13.9126    14.3479     0.8835 O.2     
  55 O55           12.0494    14.9679     2.3291 O.2     
  56 O56           11.9916    13.2382     0.9400 O.3     
  57 H57            0.1033    -0.4182     1.3925 H       
  58 H58            0.6005    -2.8054     1.4763 H       
  59 H59            2.9129    -3.6013     1.7055 H       
  60 H60            4.7731    -2.0020     1.8583 H       
  61 H61            0.9225     6.0517    -0.3760 H       
  62 H62            1.4868     3.6613    -0.2943 H       
  63 H63            3.5379     4.2848     3.4225 H       
  64 H64            2.9671     6.6732     3.3289 H       
  65 H65            4.8024     3.9790     2.2354 H       
  66 H66            6.0458     2.7294     2.4817 H       
  67 H67           11.8073     6.1522    -3.0415 H       
  68 H68           13.7658     9.2092    -1.7804 H       
  69 H69           13.9955     7.6702    -2.6447 H       
  70 H70           13.3299    12.6077    -7.3113 H       
  71 H71           13.8482    11.5269    -9.4507 H       
  72 H72           14.3135     9.1166    -9.5572 H       
  73 H73           14.2788     7.7486    -7.5167 H       
  74 H74           14.6589    10.6506    -1.6134 H       
  75 H75           14.1276    11.7929     0.4966 H       
  76 H76           10.5009    13.2847    -1.2103 H       
  77 H77           11.0236    12.1523    -3.3278 H       
  78 H78            6.2337     2.4325     0.0271 H       
  79 H79            4.9903     3.6821    -0.2192 H       
  80 H80            6.4335     5.3434     0.9237 H       
  81 H81            7.6769     4.0937     1.1700 H       
  82 H82            7.8648     3.7968    -1.2846 H       
  83 H83            6.6214     5.0465    -1.5309 H       
  84 H84            8.0645     6.7077    -0.3881 H       
  85 H85            9.3079     5.4581    -0.1417 H       
  86 H86            8.2524     6.4108    -2.8427 H       
  87 H87            9.4958     5.1612    -2.5963 H       
@<TRIPOS>BOND
   1    1    2 ar
   2    1    6 ar
   3    1   57 1
   4    2    3 ar
   5    2   58 1
   6    3    4 ar
   7    3   59 1
   8    4    5 ar
   9    4   60 1
  10    5    6 ar
  11    5    8 1
  12    6    7 1
  13    7   10 2
  14    8    9 am
  15    8   11 2
  16    9   10 1
  17    9   18 1
  18   10   12 1
  19   12   15 ar
  20   12   14 ar
  21   13   14 ar
  22   13   17 ar
  23   13   61 1
  24   14   62 1
  25   15   16 ar
  26   15   63 1
  27   16   17 ar
  28   16   64 1
  29   17   51 1
  30   18   42 1
  31   18   65 1
  32   18   66 1
  33   19   20 1
  34   19   23 1
  35   19   46 1
  36   20   21 2
  37   21   22 1
  38   22   23 2
  39   22   24 1
  40   23   67 1
  41   24   25 1
  42   24   68 1
  43   24   69 1
  44   25   26 1
  45   25   30 am
  46   26   27 2
  47   26   35 1
  48   27   28 1
  49   28   31 ar
  50   28   29 ar
  51   29   30 1
  52   29   34 ar
  53   30   41 2
  54   31   32 ar
  55   31   70 1
  56   32   33 ar
  57   32   71 1
  58   33   34 ar
  59   33   72 1
  60   34   73 1
  61   35   36 ar
  62   35   40 ar
  63   36   37 ar
  64   36   74 1
  65   37   38 ar
  66   37   75 1
  67   38   39 ar
  68   38   56 1
  69   39   40 ar
  70   39   76 1
  71   40   77 1
  72   42   43 1
  73   42   78 1
  74   42   79 1
  75   43   44 1
  76   43   80 1
  77   43   81 1
  78   44   45 1
  79   44   82 1
  80   44   83 1
  81   45   46 1
  82   45   84 1
  83   45   85 1
  84   46   86 1
  85   46   87 1
  86   47   48 2
  87   47   49 2
  88   47   50 2
  89   47   51 1
  90   52   53 2
  91   52   54 2
  92   52   55 2
  93   52   56 1

#	End of record

