#	Name: ASD01001101
#	Creating user name:	WinNT
#	Creation time:	15. 06. 2019 18:55

#	Modifying user name:	WinNT
#	Modification time:	15. 06. 2019 18:55

#	Program:	/corina/corina34_cracker 3.40 0067  02.08.2006

@<TRIPOS>MOLECULE
ASD01001101
  63   67    0    0    0
SMALL
NO_CHARGES


@<TRIPOS>ATOM
   1 C1             1.2398     0.4459    -2.1479 C.2     
   2 N2             0.5344    -0.5098    -2.8566 N.pl3   
   3 N3            -0.8260    -0.6905    -2.5771 N.2     
   4 C4            -1.4259     0.0140    -1.6775 C.2     
   5 N5            -0.7833     0.9772    -0.9404 N.am    
   6 C6             0.5318     1.2234    -1.1313 C.2     
   7 C7             2.5403     0.4314    -2.6012 C.2     
   8 C8             2.6119    -0.5477    -3.5951 C.2     
   9 C9             1.3769    -1.1010    -3.7263 C.2     
  10 O10            1.1094     2.0759    -0.4811 O.2     
  11 C11           -1.5272     1.7397     0.0653 C.3     
  12 C12           -0.7692     1.7265     1.3678 C.ar    
  13 C13            0.1637     2.7111     1.6346 C.ar    
  14 C14            0.8590     2.6989     2.8293 C.ar    
  15 C15            0.6211     1.7024     3.7573 C.ar    
  16 C16           -0.3125     0.7184     3.4909 C.ar    
  17 C17           -1.0109     0.7330     2.2980 C.ar    
  18 C18           -2.8916    -0.2304    -1.4265 C.3     
  19 N19           -3.3692    -1.2913    -2.3168 N.am    
  20 C20           -3.0958    -0.6557     0.0290 C.3     
  21 C21           -2.7769    -2.6293    -2.2456 C.3     
  22 C22           -4.3536    -1.0363    -3.2014 C.2     
  23 C23           -4.8798     0.3377    -3.3460 C.ar    
  24 O24           -4.8087    -1.9361    -3.8802 O.2     
  25 C25           -1.9548    -2.8910    -3.5091 C.3     
  26 Cl26           0.9535    -2.3670    -4.8361 Cl      
  27 C27           -4.5338    -0.8580     0.5108 C.3     
  28 C28           -3.6253    -2.0681     0.2846 C.3     
  29 N29           -1.4564    -4.2728    -3.4916 N.3     
  30 C30           -5.0327     0.8998    -4.6144 C.ar    
  31 C31           -5.5242     2.1825    -4.7425 C.ar    
  32 C32           -5.8653     2.9114    -3.6170 C.ar    
  33 C33           -5.7158     2.3603    -2.3568 C.ar    
  34 C34           -5.2312     1.0764    -2.2151 C.ar    
  35 C35           -6.4017     4.3120    -3.7645 C.3     
  36 H36            3.3496     1.0571    -2.2549 H       
  37 H37            3.4923    -0.8172    -4.1595 H       
  38 H38           -1.6477     2.7684    -0.2745 H       
  39 H39           -2.5084     1.2880     0.2113 H       
  40 H40            0.3495     3.4896     0.9095 H       
  41 H41            1.5883     3.4678     3.0374 H       
  42 H42            1.1648     1.6925     4.6904 H       
  43 H43           -0.4981    -0.0604     4.2158 H       
  44 H44           -1.7402    -0.0358     2.0899 H       
  45 H45           -3.4509     0.6851    -1.6194 H       
  46 H46           -2.3784    -0.2500     0.7423 H       
  47 H47           -2.1295    -2.6940    -1.3710 H       
  48 H48           -3.5692    -3.3737    -2.1669 H       
  49 H49           -2.5821    -2.7422    -4.3880 H       
  50 H50           -1.1116    -2.2011    -3.5434 H       
  51 H51           -4.7623    -0.5858     1.5412 H       
  52 H52           -5.3343    -0.6882    -0.2092 H       
  53 H53           -3.8282    -2.6945    -0.5841 H       
  54 H54           -3.2562    -2.5921     1.1663 H       
  55 H55           -0.9099    -4.4706    -4.3164 H       
  56 H56           -0.9250    -4.4549    -2.6534 H       
  57 H57           -4.7665     0.3320    -5.4937 H       
  58 H58           -5.6427     2.6187    -5.7233 H       
  59 H59           -5.9836     2.9347    -1.4823 H       
  60 H60           -5.1153     0.6472    -1.2308 H       
  61 H61           -7.4878     4.2781    -3.8494 H       
  62 H62           -6.1237     4.9014    -2.8907 H       
  63 H63           -5.9814     4.7696    -4.6601 H       
@<TRIPOS>BOND
   1    1    2 1
   2    1    7 2
   3    1    6 1
   4    2    3 1
   5    2    9 1
   6    3    4 2
   7    4    5 1
   8    4   18 1
   9    5    6 am
  10    5   11 1
  11    6   10 2
  12    7    8 1
  13    7   36 1
  14    8    9 2
  15    8   37 1
  16    9   26 1
  17   11   12 1
  18   11   38 1
  19   11   39 1
  20   12   13 ar
  21   12   17 ar
  22   13   14 ar
  23   13   40 1
  24   14   15 ar
  25   14   41 1
  26   15   16 ar
  27   15   42 1
  28   16   17 ar
  29   16   43 1
  30   17   44 1
  31   18   19 1
  32   18   20 1
  33   18   45 1
  34   19   21 1
  35   19   22 am
  36   20   27 1
  37   20   28 1
  38   20   46 1
  39   21   25 1
  40   21   47 1
  41   21   48 1
  42   22   23 1
  43   22   24 2
  44   23   30 ar
  45   23   34 ar
  46   25   29 1
  47   25   49 1
  48   25   50 1
  49   27   28 1
  50   27   51 1
  51   27   52 1
  52   28   53 1
  53   28   54 1
  54   29   55 1
  55   29   56 1
  56   30   31 ar
  57   30   57 1
  58   31   32 ar
  59   31   58 1
  60   32   33 ar
  61   32   35 1
  62   33   34 ar
  63   33   59 1
  64   34   60 1
  65   35   61 1
  66   35   62 1
  67   35   63 1

#	End of record

