#	Name: ASD01180224
#	Creating user name:	WinNT
#	Creation time:	15. 06. 2019 19:07

#	Modifying user name:	WinNT
#	Modification time:	15. 06. 2019 19:07

#	Program:	/corina/corina34_cracker 3.40 0067  02.08.2006

@<TRIPOS>MOLECULE
ASD01180224
  63   65    0    0    0
SMALL
NO_CHARGES


@<TRIPOS>ATOM
   1 C1             0.5647     1.7318     0.2381 C.2     
   2 C2             0.4654     0.2281     0.2344 C.3     
   3 C3             1.8482    -0.3737    -0.0233 C.3     
   4 O4             1.6320     2.2672     0.0536 O.2     
   5 O5            -0.5336     2.4764     0.4409 O.3     
   6 C6             2.8534    -2.5832    -0.2360 C.2     
   7 C7             2.7560    -4.0583    -0.2397 C.ar    
   8 C8             3.8931    -4.8464    -0.4558 C.ar    
   9 C9             3.7483    -6.2223    -0.4490 C.ar    
  10 C10            2.4968    -6.7704    -0.2310 C.ar    
  11 N11            1.4427    -6.0028    -0.0302 N.ar    
  12 C12            1.5306    -4.6888    -0.0221 C.ar    
  13 O13            3.9272    -2.0445    -0.4217 O.2     
  14 N14            1.7517    -1.8356    -0.0269 N.am    
  15 C15            2.3349    -8.2686    -0.2234 C.3     
  16 C16            1.6805    -8.7042     1.0893 C.3     
  17 C17            1.6085   -10.2316     1.1409 C.3     
  18 C18            3.0248   -10.8074     1.1991 C.3     
  19 O19            1.5099    -8.6642    -1.3211 O.3     
  20 C20            3.3571    -9.1194    -4.9855 C.ar    
  21 C21            1.9758    -9.2700    -4.8763 C.ar    
  22 C22            1.3615    -9.1169    -3.6512 C.ar    
  23 C23            2.1178    -8.8140    -2.5270 C.ar    
  24 C24            3.4939    -8.6634    -2.6326 C.ar    
  25 C25            4.1136    -8.8149    -3.8552 C.ar    
  26 C26            4.0216    -9.2894    -6.3010 C.ar    
  27 C27            5.4026    -9.1391    -6.4115 C.ar    
  28 C28            6.0156    -9.2984    -7.6377 C.ar    
  29 C29            5.2617    -9.6066    -8.7558 C.ar    
  30 C30            3.8906    -9.7569    -8.6520 C.ar    
  31 C31            3.2679    -9.6056    -7.4296 C.ar    
  32 C32            5.9367    -9.7788   -10.0922 C.3     
  33 F33            6.3056   -11.1178   -10.2592 F       
  34 F34            5.0537    -9.4077   -11.1119 F       
  35 F35            7.0774    -8.9706   -10.1460 F       
  36 C36            0.8308   -10.6637     2.3857 C.3     
  37 H37            0.0946    -0.1140     1.2006 H       
  38 H38           -0.2209    -0.0888    -0.5510 H       
  39 H39            2.2190    -0.0317    -0.9895 H       
  40 H40            2.5345    -0.0569     0.7621 H       
  41 H41           -0.4202     3.4367     0.4345 H       
  42 H42            4.8583    -4.3918    -0.6238 H       
  43 H43            4.6031    -6.8618    -0.6124 H       
  44 H44            0.6456    -4.0942     0.1500 H       
  45 H45            0.8948    -2.2654     0.1212 H       
  46 H46            3.3132    -8.7403    -0.3157 H       
  47 H47            2.2726    -8.3398     1.9288 H       
  48 H48            0.6737    -8.2908     1.1481 H       
  49 H49            1.1021   -10.6019     0.2495 H       
  50 H50            2.9764   -11.8957     1.1631 H       
  51 H51            3.6011   -10.4410     0.3496 H       
  52 H52            3.5060   -10.4956     2.1261 H       
  53 H53            1.3870    -9.5056    -5.7505 H       
  54 H54            0.2912    -9.2335    -3.5660 H       
  55 H55            4.0795    -8.4271    -1.7565 H       
  56 H56            5.1842    -8.6979    -3.9367 H       
  57 H57            5.9921    -8.8982    -5.5392 H       
  58 H58            7.0857    -9.1818    -7.7246 H       
  59 H59            3.3069    -9.9976    -9.5281 H       
  60 H60            2.1979    -9.7279    -7.3487 H       
  61 H61           -0.1782   -10.2535     2.3443 H       
  62 H62            0.7794   -11.7519     2.4225 H       
  63 H63            1.3371   -10.2935     3.2771 H       
@<TRIPOS>BOND
   1    1    2 1
   2    1    4 2
   3    1    5 1
   4    2    3 1
   5    2   37 1
   6    2   38 1
   7    3   14 1
   8    3   39 1
   9    3   40 1
  10    5   41 1
  11    6    7 1
  12    6   13 2
  13    6   14 am
  14    7    8 ar
  15    7   12 ar
  16    8    9 ar
  17    8   42 1
  18    9   10 ar
  19    9   43 1
  20   10   11 ar
  21   10   15 1
  22   11   12 ar
  23   12   44 1
  24   14   45 1
  25   15   16 1
  26   15   19 1
  27   15   46 1
  28   16   17 1
  29   16   47 1
  30   16   48 1
  31   17   18 1
  32   17   36 1
  33   17   49 1
  34   18   50 1
  35   18   51 1
  36   18   52 1
  37   19   23 1
  38   20   21 ar
  39   20   25 ar
  40   20   26 1
  41   21   22 ar
  42   21   53 1
  43   22   23 ar
  44   22   54 1
  45   23   24 ar
  46   24   25 ar
  47   24   55 1
  48   25   56 1
  49   26   27 ar
  50   26   31 ar
  51   27   28 ar
  52   27   57 1
  53   28   29 ar
  54   28   58 1
  55   29   30 ar
  56   29   32 1
  57   30   31 ar
  58   30   59 1
  59   31   60 1
  60   32   33 1
  61   32   34 1
  62   32   35 1
  63   36   61 1
  64   36   62 1
  65   36   63 1

#	End of record

