#	Name: ASD08150293
#	Creating user name:	WinNT
#	Creation time:	15. 06. 2019 21:15

#	Modifying user name:	WinNT
#	Modification time:	15. 06. 2019 21:15

#	Program:	/corina/corina34_cracker 3.40 0067  02.08.2006

@<TRIPOS>MOLECULE
ASD08150293
  18   17    0    0    0
SMALL
NO_CHARGES


@<TRIPOS>ATOM
   1 C1            -0.0187     1.5258     0.0104 C.3     
   2 C2             0.0021    -0.0041     0.0020 C.3     
   3 C3            -1.4266    -0.5342     0.1385 C.3     
   4 C4            -1.4059    -2.0641     0.1301 C.3     
   5 O5             1.3220     2.0204     0.0003 O.3     
   6 O6             0.5662    -0.4660    -1.2270 O.3     
   7 N7            -2.2384    -0.0494    -0.9857 N.3     
   8 H8            -0.5459     1.8868    -0.8726 H       
   9 H9            -0.5289     1.8773     0.9072 H       
  10 H10            0.6044    -0.3639     0.8362 H       
  11 H11           -1.8569    -0.1819     1.0760 H       
  12 H12           -0.8035    -2.4239     0.9643 H       
  13 H13           -2.4237    -2.4418     0.2274 H       
  14 H14           -0.9756    -2.4165    -0.8073 H       
  15 H15            1.3852     2.9853     0.0049 H       
  16 H16            0.0804    -0.1829    -2.0137 H       
  17 H17           -1.8245    -0.3083    -1.8687 H       
  18 H18           -3.1871    -0.3862    -0.9184 H       
@<TRIPOS>BOND
   1    1    2 1
   2    1    5 1
   3    1    8 1
   4    1    9 1
   5    2    3 1
   6    2    6 1
   7    2   10 1
   8    3    4 1
   9    3    7 1
  10    3   11 1
  11    4   12 1
  12    4   13 1
  13    4   14 1
  14    5   15 1
  15    6   16 1
  16    7   17 1
  17    7   18 1

#	End of record

