#	Name: ASD01200101
#	Creating user name:	WinNT
#	Creation time:	15. 06. 2019 19:08

#	Modifying user name:	WinNT
#	Modification time:	15. 06. 2019 19:08

#	Program:	/corina/corina34_cracker 3.40 0067  02.08.2006

@<TRIPOS>MOLECULE
ASD01200101
  56   60    0    0    0
SMALL
NO_CHARGES


@<TRIPOS>ATOM
   1 O1            -0.5272     1.0214    -1.9091 O.3     
   2 C2            -0.3633    -0.1595    -1.3025 C.2     
   3 N3             0.9028    -0.4139    -0.9447 N.am    
   4 C4             1.7476     0.7224    -1.3435 C.3     
   5 C5             0.7579     1.7014    -2.0040 C.3     
   6 O6            -1.2788    -0.9308    -1.0942 O.2     
   7 C7             1.3696    -1.6259    -0.2670 C.3     
   8 C8             1.4784    -6.2977    -3.9883 C.2     
   9 N9             2.5795    -5.5909    -4.0519 N.2     
  10 C10            2.5021    -4.5482    -3.1909 C.ar    
  11 C11            1.2514    -4.6287    -2.5520 C.ar    
  12 N12            0.6239    -5.7437    -3.0742 N.pl3   
  13 C13            3.3760    -3.5057    -2.8648 C.ar    
  14 C14            3.0026    -2.5692    -1.9219 C.ar    
  15 C15            1.7626    -2.6562    -1.2943 C.ar    
  16 C16            0.8926    -3.6785    -1.6061 C.ar    
  17 C17            1.1981    -7.5101    -4.7894 C.ar    
  18 C18            2.1499    -7.9755    -5.6959 C.ar    
  19 C19            1.8732    -9.1111    -6.4376 C.ar    
  20 C20            0.6533    -9.7446    -6.2487 C.ar    
  21 C21           -0.2452    -9.2280    -5.3320 C.ar    
  22 N22            0.0445    -8.1490    -4.6353 N.ar    
  23 O23            3.8510    -1.5557    -1.6037 O.3     
  24 C24            5.0044    -1.4428    -2.3131 C.ar    
  25 C25            5.0285    -0.7045    -3.4878 C.ar    
  26 C26            6.2025    -0.5910    -4.2068 C.ar    
  27 C27            7.3529    -1.2125    -3.7572 C.ar    
  28 C28            7.3316    -1.9488    -2.5870 C.ar    
  29 C29            6.1617    -2.0608    -1.8612 C.ar    
  30 S30            8.8484    -1.0666    -4.6774 S.o2    
  31 O31            9.5836    -2.2345    -4.3388 O.2     
  32 O32            8.4177    -0.8331    -6.0113 O.2     
  33 C33            9.6539     0.4111    -4.0007 C.3     
  34 C34           10.9796     0.6472    -4.7271 C.3     
  35 H35            2.2124     1.1791    -0.4697 H       
  36 H36            2.5056     0.4034    -2.0589 H       
  37 H37            1.0253     1.8693    -3.0472 H       
  38 H38            0.7322     2.6448    -1.4585 H       
  39 H39            2.2319    -1.3854     0.3547 H       
  40 H40            0.5702    -2.0231     0.3585 H       
  41 H41           -0.2576    -6.0719    -2.8376 H       
  42 H42            4.3388    -3.4338    -3.3488 H       
  43 H43           -0.0676    -3.7398    -1.1155 H       
  44 H44            3.0896    -7.4572    -5.8178 H       
  45 H45            2.5906    -9.4952    -7.1477 H       
  46 H46            0.4071   -10.6324    -6.8123 H       
  47 H47           -1.1955    -9.7190    -5.1829 H       
  48 H48            4.1300    -0.2194    -3.8397 H       
  49 H49            6.2217    -0.0165    -5.1211 H       
  50 H50            8.2315    -2.4336    -2.2382 H       
  51 H51            6.1466    -2.6326    -0.9451 H       
  52 H52            9.0043     1.2752    -4.1403 H       
  53 H53            9.8431     0.2669    -2.9370 H       
  54 H54           10.7905     0.7914    -5.7908 H       
  55 H55           11.4637     1.5351    -4.3204 H       
  56 H56           11.6293    -0.2169    -4.5875 H       
@<TRIPOS>BOND
   1    1    2 1
   2    1    5 1
   3    2    3 am
   4    2    6 2
   5    3    4 1
   6    3    7 1
   7    4    5 1
   8    4   35 1
   9    4   36 1
  10    5   37 1
  11    5   38 1
  12    7   15 1
  13    7   39 1
  14    7   40 1
  15    8    9 2
  16    8   12 1
  17    8   17 1
  18    9   10 1
  19   10   11 ar
  20   10   13 ar
  21   11   12 1
  22   11   16 ar
  23   12   41 1
  24   13   14 ar
  25   13   42 1
  26   14   15 ar
  27   14   23 1
  28   15   16 ar
  29   16   43 1
  30   17   18 ar
  31   17   22 ar
  32   18   19 ar
  33   18   44 1
  34   19   20 ar
  35   19   45 1
  36   20   21 ar
  37   20   46 1
  38   21   22 ar
  39   21   47 1
  40   23   24 1
  41   24   25 ar
  42   24   29 ar
  43   25   26 ar
  44   25   48 1
  45   26   27 ar
  46   26   49 1
  47   27   28 ar
  48   27   30 1
  49   28   29 ar
  50   28   50 1
  51   29   51 1
  52   30   31 2
  53   30   32 2
  54   30   33 1
  55   33   34 1
  56   33   52 1
  57   33   53 1
  58   34   54 1
  59   34   55 1
  60   34   56 1

#	End of record

