#	Name: ASD01917485
#	Creating user name:	WinNT
#	Creation time:	15. 06. 2019 20:09

#	Modifying user name:	WinNT
#	Modification time:	15. 06. 2019 20:09

#	Program:	/corina/corina34_cracker 3.40 0067  02.08.2006

@<TRIPOS>MOLECULE
ASD01917485
  51   54    0    0    0
SMALL
NO_CHARGES


@<TRIPOS>ATOM
   1 C1            -0.0168     1.3902     0.0097 C.ar    
   2 C2             0.0021    -0.0041     0.0020 C.ar    
   3 N3             1.1281     2.0669     0.0024 N.ar    
   4 N4             1.1562    -0.6463    -0.0125 N.ar    
   5 C5             2.2907     0.0310    -0.0196 C.ar    
   6 C6             2.2753     1.4182    -0.0120 C.ar    
   7 C7            -1.3085     2.1156     0.0197 C.2     
   8 O8            -2.3536     1.4956     0.0213 O.2     
   9 N9            -1.3245     3.4633     0.0271 N.am    
  10 C10            3.5727     2.1848    -0.0208 C.3     
  11 C11           -2.6019     4.1806     0.0371 C.3     
  12 C12           -3.4773     3.8434    -1.1826 C.3     
  13 C13           -4.8692     4.4447    -0.9789 C.3     
  14 C14           -4.7669     5.9505    -0.7283 C.3     
  15 C15           -3.8361     6.1969     0.4719 C.3     
  16 C16           -4.2366     5.1973     1.5813 C.3     
  17 C17           -3.4395     3.8875     1.3032 C.3     
  18 C18           -2.4224     5.7218     0.0441 C.3     
  19 C19           -5.0251     8.1380     1.3411 C.2     
  20 C20           -5.0549     9.5425     1.8024 C.ar    
  21 C21           -6.2541    10.1140     2.2296 C.ar    
  22 C22           -6.2762    11.4272     2.6597 C.ar    
  23 C23           -5.1107    12.1759     2.6673 C.ar    
  24 C24           -3.9175    11.6138     2.2439 C.ar    
  25 C25           -3.8827    10.2996     1.8176 C.ar    
  26 O26           -6.0465     7.4791     1.3334 O.2     
  27 N27           -3.8655     7.5885     0.9290 N.am    
  28 F28           -2.7846    12.3498     2.2530 F       
  29 F29           -7.4366    11.9819     3.0731 F       
  30 H30           -0.9252    -0.5578     0.0083 H       
  31 H31            3.2328    -0.4969    -0.0315 H       
  32 H32           -0.4903     3.9582     0.0259 H       
  33 H33            3.8955     2.3644     1.0047 H       
  34 H34            4.3332     1.6060    -0.5450 H       
  35 H35            3.4279     3.1384    -0.5285 H       
  36 H36           -3.0268     4.2633    -2.0821 H       
  37 H37           -3.5588     2.7613    -1.2850 H       
  38 H38           -5.4726     4.2674    -1.8691 H       
  39 H39           -5.3461     3.9681    -0.1224 H       
  40 H40           -4.3594     6.4405    -1.6125 H       
  41 H41           -5.7566     6.3520    -0.5107 H       
  42 H42           -3.9693     5.5965     2.5597 H       
  43 H43           -5.3073     4.9980     1.5373 H       
  44 H44           -4.1264     3.0623     1.1152 H       
  45 H45           -2.7830     3.6460     2.1391 H       
  46 H46           -1.6618     6.0234     0.7644 H       
  47 H47           -2.1830     6.0919    -0.9527 H       
  48 H48           -7.1634     9.5313     2.2237 H       
  49 H49           -5.1324    13.2018     3.0042 H       
  50 H50           -2.9510     9.8608     1.4922 H       
  51 H51           -3.0505     8.1144     0.9351 H       
@<TRIPOS>BOND
   1    1    2 ar
   2    1    3 ar
   3    1    7 1
   4    2    4 ar
   5    2   30 1
   6    3    6 ar
   7    4    5 ar
   8    5    6 ar
   9    5   31 1
  10    6   10 1
  11    7    8 2
  12    7    9 am
  13    9   11 1
  14    9   32 1
  15   10   33 1
  16   10   34 1
  17   10   35 1
  18   11   12 1
  19   11   17 1
  20   11   18 1
  21   12   13 1
  22   12   36 1
  23   12   37 1
  24   13   14 1
  25   13   38 1
  26   13   39 1
  27   14   15 1
  28   14   40 1
  29   14   41 1
  30   15   16 1
  31   15   18 1
  32   15   27 1
  33   16   17 1
  34   16   42 1
  35   16   43 1
  36   17   44 1
  37   17   45 1
  38   18   46 1
  39   18   47 1
  40   19   20 1
  41   19   26 2
  42   19   27 am
  43   20   21 ar
  44   20   25 ar
  45   21   22 ar
  46   21   48 1
  47   22   23 ar
  48   22   29 1
  49   23   24 ar
  50   23   49 1
  51   24   25 ar
  52   24   28 1
  53   25   50 1
  54   27   51 1

#	End of record

