#	Name: ASD01816729
#	Creating user name:	WinNT
#	Creation time:	15. 06. 2019 19:35

#	Modifying user name:	WinNT
#	Modification time:	15. 06. 2019 19:35

#	Program:	/corina/corina34_cracker 3.40 0067  02.08.2006

@<TRIPOS>MOLECULE
ASD01816729
  65   69    0    0    0
SMALL
NO_CHARGES


@<TRIPOS>ATOM
   1 C1            -0.8243     0.8721     0.0119 C.2     
   2 C2            -0.5430    -0.5007     0.0366 C.2     
   3 C3             0.7530    -0.9218    -0.0249 C.2     
   4 C4             1.7843     0.0283    -0.1121 C.2     
   5 N5             1.4809     1.3626    -0.1341 N.am    
   6 C6             0.1816     1.7716    -0.0724 C.2     
   7 C7             3.1170    -0.4013    -0.1755 C.2     
   8 C8             4.1262     0.5141    -0.2604 C.2     
   9 C9             3.8101     1.8843    -0.2832 C.2     
  10 C10            2.4607     2.2849    -0.2177 C.2     
  11 C11            3.4359    -1.8740    -0.1493 C.3     
  12 O12            2.1780     3.4711    -0.2370 O.2     
  13 C13            4.8758     2.8876    -0.3734 C.2     
  14 N14            6.1673     2.5051    -0.3258 N.am    
  15 O15            4.5940     4.0658    -0.4913 O.2     
  16 N16            3.5785    -2.3687    -1.5251 N.3     
  17 C17            4.1188    -3.7340    -1.5401 C.3     
  18 C18            4.3899    -4.1610    -2.9845 C.3     
  19 C19            3.0849    -4.0997    -3.7831 C.3     
  20 C20            2.5179    -2.6792    -3.7113 C.3     
  21 C21            2.3011    -2.2952    -2.2458 C.3     
  22 C22            3.3567    -4.4614    -5.2206 C.ar    
  23 N23            3.2092    -3.5491    -6.1610 N.ar    
  24 C24            2.1135    -5.0466    -3.2115 C.1     
  25 N25            1.3638    -5.7773    -2.7705 N.1     
  26 C26            3.4360    -3.8196    -7.4317 C.ar    
  27 C27            3.8403    -5.0821    -7.8251 C.ar    
  28 C28            4.0063    -6.0687    -6.8640 C.ar    
  29 C29            3.7634    -5.7450    -5.5374 C.ar    
  30 C30            7.2314     3.4921    -0.5248 C.3     
  31 C31            8.4921     2.7899    -1.0385 C.3     
  32 C32            9.6211     3.8156    -1.1684 C.3     
  33 O33            9.8450     4.4386     0.0981 O.3     
  34 C34            8.7148     5.1506     0.6060 C.3     
  35 C35            7.5494     4.1784     0.8072 C.3     
  36 O36            8.2272     2.2070    -2.3160 O.3     
  37 Br37           4.1621    -5.4592    -9.6500 Br      
  38 Br38           3.9726    -7.0454    -4.1805 Br      
  39 H39           -1.8483     1.2125     0.0558 H       
  40 H40           -1.3462    -1.2196     0.1043 H       
  41 H41            0.9843    -1.9766    -0.0065 H       
  42 H42           -0.0467     2.8270    -0.0905 H       
  43 H43            5.1552     0.1899    -0.3092 H       
  44 H44            4.3678    -2.0344     0.3929 H       
  45 H45            2.6289    -2.4117     0.3484 H       
  46 H46            6.3922     1.5762    -0.1598 H       
  47 H47            5.0488    -3.7628    -0.9723 H       
  48 H48            3.3971    -4.4152    -1.0894 H       
  49 H49            5.1219    -3.4884    -3.4315 H       
  50 H50            4.7762    -5.1801    -2.9963 H       
  51 H51            3.2205    -1.9833    -4.1697 H       
  52 H52            1.5668    -2.6397    -4.2423 H       
  53 H53            1.5879    -2.9831    -1.7918 H       
  54 H54            1.9109    -1.2789    -2.1905 H       
  55 H55            3.3041    -3.0460    -8.1737 H       
  56 H56            4.3208    -7.0639    -7.1417 H       
  57 H57            6.9069     4.2366    -1.2518 H       
  58 H58            8.7870     2.0107    -0.3357 H       
  59 H59           10.5327     3.3137    -1.4928 H       
  60 H60            9.3421     4.5724    -1.9015 H       
  61 H61            8.9734     5.6103     1.5598 H       
  62 H62            8.4239     5.9248    -0.1039 H       
  63 H63            6.6730     4.7269     1.1526 H       
  64 H64            7.8252     3.4273     1.5473 H       
  65 H65            8.9837     1.7447    -2.7019 H       
@<TRIPOS>BOND
   1    1    2 1
   2    1    6 2
   3    1   39 1
   4    2    3 2
   5    2   40 1
   6    3    4 1
   7    3   41 1
   8    4    5 1
   9    4    7 2
  10    5    6 1
  11    5   10 am
  12    6   42 1
  13    7    8 1
  14    7   11 1
  15    8    9 2
  16    8   43 1
  17    9   10 1
  18    9   13 1
  19   10   12 2
  20   11   16 1
  21   11   44 1
  22   11   45 1
  23   13   15 2
  24   13   14 am
  25   14   30 1
  26   14   46 1
  27   16   17 1
  28   16   21 1
  29   17   18 1
  30   17   47 1
  31   17   48 1
  32   18   19 1
  33   18   49 1
  34   18   50 1
  35   19   20 1
  36   19   22 1
  37   19   24 1
  38   20   21 1
  39   20   51 1
  40   20   52 1
  41   21   53 1
  42   21   54 1
  43   22   23 ar
  44   22   29 ar
  45   23   26 ar
  46   24   25 3
  47   26   27 ar
  48   26   55 1
  49   27   28 ar
  50   27   37 1
  51   28   29 ar
  52   28   56 1
  53   29   38 1
  54   30   31 1
  55   30   35 1
  56   30   57 1
  57   31   32 1
  58   31   36 1
  59   31   58 1
  60   32   33 1
  61   32   59 1
  62   32   60 1
  63   33   34 1
  64   34   35 1
  65   34   61 1
  66   34   62 1
  67   35   63 1
  68   35   64 1
  69   36   65 1

#	End of record

