#	Name: ASD01908031
#	Creating user name:	WinNT
#	Creation time:	15. 06. 2019 19:54

#	Modifying user name:	WinNT
#	Modification time:	15. 06. 2019 19:54

#	Program:	/corina/corina34_cracker 3.40 0067  02.08.2006

@<TRIPOS>MOLECULE
ASD01908031
  32   34    0    0    0
SMALL
NO_CHARGES


@<TRIPOS>ATOM
   1 N1            -0.0169     1.3960     0.0097 N.pl3   
   2 N2             0.0021    -0.0041     0.0020 N.2     
   3 C3             1.2470    -0.4021    -0.0120 C.2     
   4 C4             2.0719     0.7389    -0.0138 C.2     
   5 C5             1.2601     1.8344    -0.0001 C.2     
   6 S6             5.9985     0.2075     0.3323 S.3     
   7 C7             5.5510     1.5657    -0.6037 C.2     
   8 N8             4.2671     1.6668    -0.6665 N.2     
   9 C9             3.5576     0.7477    -0.0275 C.2     
  10 C10            4.3019    -0.1784     0.6083 C.2     
  11 Cl11           3.6960    -1.5159     1.5345 Cl      
  12 Br12           6.7679     2.7537    -1.4306 Br      
  13 C13           -1.2149     2.2391     0.0202 C.3     
  14 C14           -2.1008     1.8677    -1.1410 C.ar    
  15 C15           -3.0678     0.8916    -0.9867 C.ar    
  16 C16           -3.8811     0.5493    -2.0496 C.ar    
  17 C17           -3.7270     1.1859    -3.2726 C.ar    
  18 C18           -2.7560     2.1651    -3.4248 C.ar    
  19 C19           -1.9489     2.5077    -2.3572 C.ar    
  20 O20           -4.5255     0.8507    -4.3198 O.3     
  21 C21           -4.3104     1.5475    -5.5488 C.3     
  22 H22            1.5843    -1.4281    -0.0204 H       
  23 H23            1.5805     2.8657     0.0018 H       
  24 H24           -1.7572     2.0884     0.9537 H       
  25 H25           -0.9233     3.2859    -0.0655 H       
  26 H26           -3.1871     0.3960    -0.0346 H       
  27 H27           -4.6360    -0.2135    -1.9287 H       
  28 H28           -2.6340     2.6621    -4.3758 H       
  29 H29           -1.1961     3.2732    -2.4738 H       
  30 H30           -5.0123     1.1848    -6.2997 H       
  31 H31           -4.4646     2.6152    -5.3929 H       
  32 H32           -3.2902     1.3739    -5.8911 H       
@<TRIPOS>BOND
   1    1    2 1
   2    1    5 1
   3    1   13 1
   4    2    3 2
   5    3    4 1
   6    3   22 1
   7    4    5 2
   8    4    9 1
   9    5   23 1
  10    6    7 1
  11    6   10 1
  12    7    8 2
  13    7   12 1
  14    8    9 1
  15    9   10 2
  16   10   11 1
  17   13   14 1
  18   13   24 1
  19   13   25 1
  20   14   15 ar
  21   14   19 ar
  22   15   16 ar
  23   15   26 1
  24   16   17 ar
  25   16   27 1
  26   17   18 ar
  27   17   20 1
  28   18   19 ar
  29   18   28 1
  30   19   29 1
  31   20   21 1
  32   21   30 1
  33   21   31 1
  34   21   32 1

#	End of record

