#	Name: ASD03330553
#	Creating user name:	WinNT
#	Creation time:	15. 06. 2019 20:37

#	Modifying user name:	WinNT
#	Modification time:	15. 06. 2019 20:37

#	Program:	/corina/corina34_cracker 3.40 0067  02.08.2006

@<TRIPOS>MOLECULE
ASD03330553
  63   66    0    0    0
SMALL
NO_CHARGES


@<TRIPOS>ATOM
   1 C1            -0.3220     1.1721     0.8676 C.2     
   2 N2            -0.3496    -0.1668     1.1030 N.pl3   
   3 C3             0.9831     1.5587     0.9069 C.2     
   4 N4             1.7317     0.4596     1.1463 N.2     
   5 C5             0.9406    -0.5817     1.2596 C.2     
   6 C6             1.3752    -1.9721     1.5145 C.ar    
   7 C7             1.4885     2.9303     0.7212 C.2     
   8 O8             0.7112     3.8415     0.5101 O.2     
   9 C9             3.3149     4.5387     0.6008 C.3     
  10 N10            2.8123     3.1751     0.7854 N.am    
  11 C11            3.4837     4.8222    -0.8932 C.3     
  12 C12            2.1133     4.8061    -1.5734 C.3     
  13 C13            4.1305     6.1958    -1.0818 C.3     
  14 C14            4.3760     3.7481    -1.5185 C.3     
  15 C15            4.6460     4.6815     1.2927 C.2     
  16 N16            5.1821     5.9043     1.4768 N.am    
  17 O17            5.2349     3.6960     1.6839 O.2     
  18 C18            6.5086     6.0387     2.0840 C.3     
  19 C19           -1.5589    -0.9906     1.1840 C.3     
  20 C20           -2.4713    -0.6614    -0.0017 C.3     
  21 C21           -3.3816     0.5087     0.3574 C.3     
  22 N22           -2.7010     1.4523     1.2465 N.3     
  23 C23           -1.5215     2.0429     0.5969 C.3     
  24 C24           -3.6238     2.4963     1.7118 C.3     
  25 C25            2.6276    -2.4048     1.0766 C.ar    
  26 C26            3.0307    -3.7052     1.3170 C.ar    
  27 C27            2.1858    -4.5820     1.9963 C.ar    
  28 C28            0.9409    -4.1505     2.4310 C.ar    
  29 C29            0.5362    -2.8528     2.1986 C.ar    
  30 O30            4.1825    -4.3668     1.0010 O.3     
  31 C31            4.2020    -5.5304     1.8488 C.3     
  32 O32            2.8094    -5.7913     2.1044 O.3     
  33 H33            2.6058     5.2482     1.0274 H       
  34 H34            3.4323     2.4484     0.9538 H       
  35 H35            1.4775     5.5713    -1.1279 H       
  36 H36            2.2335     5.0080    -2.6377 H       
  37 H37            1.6524     3.8275    -1.4390 H       
  38 H38            5.0904     6.2194    -0.5659 H       
  39 H39            4.2846     6.3820    -2.1447 H       
  40 H40            3.4773     6.9648    -0.6693 H       
  41 H41            3.9152     2.7695    -1.3841 H       
  42 H42            4.4962     3.9500    -2.5828 H       
  43 H43            5.3523     3.7596    -1.0339 H       
  44 H44            4.6897     6.6953     1.2072 H       
  45 H45            6.4965     5.6033     3.0832 H       
  46 H46            7.2437     5.5186     1.4699 H       
  47 H47            6.7723     7.0942     2.1507 H       
  48 H48           -1.2844    -2.0450     1.1506 H       
  49 H49           -2.0823    -0.7788     2.1163 H       
  50 H50           -1.8617    -0.3947    -0.8650 H       
  51 H51           -3.0797    -1.5328    -0.2439 H       
  52 H52           -3.6758     1.0262    -0.5556 H       
  53 H53           -4.2736     0.1282     0.8551 H       
  54 H54           -1.3455     3.0408     0.9986 H       
  55 H55           -1.6908     2.1062    -0.4780 H       
  56 H56           -4.4485     2.0360     2.2560 H       
  57 H57           -3.0926     3.1835     2.3703 H       
  58 H58           -4.0150     3.0439     0.8544 H       
  59 H59            3.2810    -1.7247     0.5502 H       
  60 H60            0.2885    -4.8317     2.9570 H       
  61 H61           -0.4334    -2.5204     2.5387 H       
  62 H62            4.6609    -6.3732     1.3318 H       
  63 H63            4.7288    -5.3176     2.7790 H       
@<TRIPOS>BOND
   1    1    2 1
   2    1    3 2
   3    1   23 1
   4    2   19 1
   5    2    5 1
   6    3    4 1
   7    3    7 1
   8    4    5 2
   9    5    6 1
  10    6   25 ar
  11    6   29 ar
  12    7    8 2
  13    7   10 am
  14    9   10 1
  15    9   11 1
  16    9   15 1
  17    9   33 1
  18   10   34 1
  19   11   12 1
  20   11   13 1
  21   11   14 1
  22   12   35 1
  23   12   36 1
  24   12   37 1
  25   13   38 1
  26   13   39 1
  27   13   40 1
  28   14   41 1
  29   14   42 1
  30   14   43 1
  31   15   16 am
  32   15   17 2
  33   16   18 1
  34   16   44 1
  35   18   45 1
  36   18   46 1
  37   18   47 1
  38   19   20 1
  39   19   48 1
  40   19   49 1
  41   20   21 1
  42   20   50 1
  43   20   51 1
  44   21   22 1
  45   21   52 1
  46   21   53 1
  47   22   23 1
  48   22   24 1
  49   23   54 1
  50   23   55 1
  51   24   56 1
  52   24   57 1
  53   24   58 1
  54   25   26 ar
  55   25   59 1
  56   26   27 ar
  57   26   30 1
  58   27   28 ar
  59   27   32 1
  60   28   29 ar
  61   28   60 1
  62   29   61 1
  63   30   31 1
  64   31   32 1
  65   31   62 1
  66   31   63 1

#	End of record

