#	Name: ASD01900626
#	Creating user name:	WinNT
#	Creation time:	15. 06. 2019 19:52

#	Modifying user name:	WinNT
#	Modification time:	15. 06. 2019 19:52

#	Program:	/corina/corina34_cracker 3.40 0067  02.08.2006

@<TRIPOS>MOLECULE
ASD01900626
  34   37    0    0    0
SMALL
NO_CHARGES


@<TRIPOS>ATOM
   1 C1            -0.0167     1.3827     0.0096 C.ar    
   2 C2             0.0021    -0.0041     0.0020 C.ar    
   3 C3            -1.1771    -0.7245     0.0115 C.ar    
   4 C4            -2.3982    -0.0591     0.0291 C.ar    
   5 C5            -2.4115     1.3416     0.0323 C.ar    
   6 C6            -1.2223     2.0596     0.0305 C.ar    
   7 O7            -3.5579    -0.7516     0.0503 O.3     
   8 C8            -4.7357    -0.1672    -0.2282 C.2     
   9 C9            -4.9011     1.1766    -0.2463 C.2     
  10 C10           -3.7292     2.0266     0.0375 C.2     
  11 N11           -3.8441     3.3098     0.2789 N.2     
  12 C12           -5.8984    -1.0269    -0.5273 C.ar    
  13 N13           -7.0760    -0.4605    -0.8060 N.ar    
  14 C14           -8.1488    -1.1595    -1.0808 C.ar    
  15 C15           -8.0954    -2.5644    -1.0915 C.ar    
  16 C16           -6.8619    -3.2058    -0.8005 C.ar    
  17 C17           -5.7438    -2.4043    -0.5187 C.ar    
  18 C18           -9.2239    -3.3463    -1.3803 C.ar    
  19 C19           -9.1196    -4.7046    -1.3774 C.ar    
  20 C20           -7.9090    -5.3332    -1.0919 C.ar    
  21 C21           -6.7920    -4.6074    -0.8067 C.ar    
  22 O22           -5.1220     3.9198     0.2723 O.3     
  23 F23            1.1445     2.0731     0.0023 F       
  24 F24           -1.1438    -2.0751     0.0033 F       
  25 H25            0.9475    -0.5260    -0.0118 H       
  26 H26           -1.2394     3.1394     0.0368 H       
  27 H27           -5.8646     1.6141    -0.4620 H       
  28 H28           -9.0782    -0.6548    -1.2997 H       
  29 H29           -4.7870    -2.8512    -0.2923 H       
  30 H30          -10.1694    -2.8743    -1.6033 H       
  31 H31           -9.9897    -5.3044    -1.5997 H       
  32 H32           -7.8557    -6.4118    -1.0968 H       
  33 H33           -5.8599    -5.1068    -0.5871 H       
  34 H34           -5.1061     4.8682     0.4608 H       
@<TRIPOS>BOND
   1    1    2 ar
   2    1   23 1
   3    1    6 ar
   4    2    3 ar
   5    2   25 1
   6    3    4 ar
   7    3   24 1
   8    4    5 ar
   9    4    7 1
  10    5    6 ar
  11    5   10 1
  12    6   26 1
  13    7    8 1
  14    8    9 2
  15    8   12 1
  16    9   10 1
  17    9   27 1
  18   10   11 2
  19   11   22 1
  20   12   13 ar
  21   12   17 ar
  22   13   14 ar
  23   14   15 ar
  24   14   28 1
  25   15   16 ar
  26   15   18 ar
  27   16   17 ar
  28   16   21 ar
  29   17   29 1
  30   18   19 ar
  31   18   30 1
  32   19   20 ar
  33   19   31 1
  34   20   21 ar
  35   20   32 1
  36   21   33 1
  37   22   34 1

#	End of record

