#	Name: ASD01420055
#	Creating user name:	WinNT
#	Creation time:	15. 06. 2019 19:20

#	Modifying user name:	WinNT
#	Modification time:	15. 06. 2019 19:20

#	Program:	/corina/corina34_cracker 3.40 0067  02.08.2006

@<TRIPOS>MOLECULE
ASD01420055
  43   45    0    0    0
SMALL
NO_CHARGES


@<TRIPOS>ATOM
   1 C1            -0.0144     1.2116     0.0087 C.2     
   2 O2             0.0085    -0.0039     0.0192 O.2     
   3 C3             1.2495     1.9734    -0.0207 C.ar    
   4 C4             2.3729     1.4931     0.6578 C.ar    
   5 C5             3.5502     2.2064     0.6275 C.ar    
   6 C6             3.6222     3.4031    -0.0764 C.ar    
   7 C7             2.5072     3.8840    -0.7524 C.ar    
   8 C8             1.3276     3.1736    -0.7317 C.ar    
   9 C9             4.7622     1.6895     1.3588 C.3     
  10 C10            4.4433     1.5645     2.8500 C.3     
  11 C11            5.1465     0.3169     0.8026 C.3     
  12 O12            4.7841     4.1037    -0.1031 O.3     
  13 C13           -1.2578     3.3242     0.1364 C.3     
  14 N14           -1.1940     1.8635     0.0183 N.am    
  15 C15           -2.4709     1.1383    -0.0897 C.3     
  16 C16           -3.2397     1.3449     1.2144 C.3     
  17 C17           -3.2437     2.7981     1.6099 C.ar    
  18 C18           -4.2174     3.2185     2.5081 C.ar    
  19 C19           -4.2721     4.5339     2.9188 C.ar    
  20 C20           -3.3509     5.4443     2.4350 C.ar    
  21 C21           -2.3855     5.0306     1.5405 C.ar    
  22 C22           -2.3319     3.7075     1.1232 C.ar    
  23 H23            2.3176     0.5639     1.2054 H       
  24 H24            2.5670     4.8143    -1.2978 H       
  25 H25            0.4627     3.5459    -1.2607 H       
  26 H26            5.5923     2.3825     1.2216 H       
  27 H27            3.6133     0.8715     2.9871 H       
  28 H28            5.3200     1.1906     3.3789 H       
  29 H29            4.1696     2.5423     3.2462 H       
  30 H30            6.0232    -0.0570     1.3315 H       
  31 H31            4.3165    -0.3761     0.9398 H       
  32 H32            5.3737     0.4060    -0.2597 H       
  33 H33            5.3700     3.8659    -0.8347 H       
  34 H34           -0.2958     3.7025     0.4821 H       
  35 H35           -1.4885     3.7571    -0.8370 H       
  36 H36           -3.0493     1.5324    -0.9253 H       
  37 H37           -2.2799     0.0758    -0.2409 H       
  38 H38           -4.2673     1.0065     1.0823 H       
  39 H39           -2.7691     0.7597     2.0045 H       
  40 H40           -4.9378     2.5089     2.8874 H       
  41 H41           -5.0328     4.8520     3.6164 H       
  42 H42           -3.3871     6.4749     2.7556 H       
  43 H43           -1.6662     5.7415     1.1615 H       
@<TRIPOS>BOND
   1    1    2 2
   2    1    3 1
   3    1   14 am
   4    3    4 ar
   5    3    8 ar
   6    4    5 ar
   7    4   23 1
   8    5    6 ar
   9    5    9 1
  10    6    7 ar
  11    6   12 1
  12    7    8 ar
  13    7   24 1
  14    8   25 1
  15    9   10 1
  16    9   11 1
  17    9   26 1
  18   10   27 1
  19   10   28 1
  20   10   29 1
  21   11   30 1
  22   11   31 1
  23   11   32 1
  24   12   33 1
  25   13   14 1
  26   13   22 1
  27   13   34 1
  28   13   35 1
  29   14   15 1
  30   15   16 1
  31   15   36 1
  32   15   37 1
  33   16   17 1
  34   16   38 1
  35   16   39 1
  36   17   18 ar
  37   17   22 ar
  38   18   19 ar
  39   18   40 1
  40   19   20 ar
  41   19   41 1
  42   20   21 ar
  43   20   42 1
  44   21   22 ar
  45   21   43 1

#	End of record

