#	Name: ASD01901592
#	Creating user name:	WinNT
#	Creation time:	15. 06. 2019 19:54

#	Modifying user name:	WinNT
#	Modification time:	15. 06. 2019 19:54

#	Program:	/corina/corina34_cracker 3.40 0067  02.08.2006

@<TRIPOS>MOLECULE
ASD01901592
  59   63    0    0    0
SMALL
NO_CHARGES


@<TRIPOS>ATOM
   1 C1            -0.0187     1.5258     0.0104 C.3     
   2 C2             0.0021    -0.0041     0.0020 C.3     
   3 N3             0.7106    -0.4893     1.1888 N.pl3   
   4 C4             0.2258    -1.3581     2.1043 C.2     
   5 C5             1.1790    -1.5507     3.0370 C.2     
   6 C6             2.2851    -0.7627     2.6812 C.2     
   7 C7             3.5450    -0.6967     3.5113 C.3     
   8 C8             3.1454    -1.0625     4.9485 C.3     
   9 C9             2.4701    -2.4284     4.9702 C.3     
  10 C10            1.1265    -2.4482     4.2497 C.3     
  11 C11            0.8766    -3.8876     3.7629 C.3     
  12 C12           -0.5315    -3.9954     3.2401 C.2     
  13 O13           -0.7785    -4.7035     2.2884 O.2     
  14 N14           -1.5159    -3.2986     3.8379 N.am    
  15 C15           -1.2427    -2.4343     4.8267 C.2     
  16 O16           -2.1562    -1.9592     5.4724 O.2     
  17 N17            0.0194    -2.0516     5.1124 N.am    
  18 C18            0.2294    -1.2332     6.3080 C.3     
  19 C19           -2.8436    -3.4855     3.4263 C.ar    
  20 C20           -3.3702    -2.7017     2.4047 C.ar    
  21 F21           -2.6021    -1.7625     1.8105 F       
  22 C22           -4.6761    -2.8828     1.9972 C.ar    
  23 C23           -5.4700    -3.8551     2.6122 C.ar    
  24 C24           -4.9375    -4.6408     3.6384 C.ar    
  25 C25           -3.6290    -4.4580     4.0369 C.ar    
  26 F26           -3.1117    -5.2206     5.0249 F       
  27 C27           -6.8257    -4.0456     2.1923 C.1     
  28 C28           -7.9372    -4.2018     1.8481 C.1     
  29 C29           -9.2930    -4.3923     1.4282 C.ar    
  30 C30           -9.8255    -3.6114     0.3989 C.ar    
  31 C31          -11.1319    -3.8009    -0.0005 C.ar    
  32 C32          -11.9149    -4.7613     0.6155 C.ar    
  33 C33          -11.3945    -5.5383     1.6355 C.ar    
  34 C34          -10.0882    -5.3638     2.0419 C.ar    
  35 N35            2.0119    -0.1362     1.5756 N.2     
  36 H36            1.0039     1.9031     0.0027 H       
  37 H37           -0.5459     1.8868    -0.8726 H       
  38 H38           -0.5289     1.8773     0.9072 H       
  39 H39           -1.0205    -0.3814     0.0098 H       
  40 H40            0.5123    -0.3556    -0.8948 H       
  41 H41           -0.7530    -1.8127     2.0870 H       
  42 H42            4.2741    -1.4117     3.1372 H       
  43 H43            3.9539     0.3107     3.4864 H       
  44 H44            4.0474    -1.0942     5.5668 H       
  45 H45            2.4821    -0.2935     5.3372 H       
  46 H46            3.1392    -3.1502     4.4728 H       
  47 H47            2.3552    -2.7699     6.0008 H       
  48 H48            1.5847    -4.1202     2.9695 H       
  49 H49            1.0154    -4.5724     4.5974 H       
  50 H50            0.1503    -0.1784     6.0448 H       
  51 H51           -0.5263    -1.4792     7.0540 H       
  52 H52            1.2205    -1.4328     6.7154 H       
  53 H53           -5.0845    -2.2738     1.2042 H       
  54 H54           -5.5481    -5.3927     4.1161 H       
  55 H55           -9.2157    -2.8613    -0.0825 H       
  56 H56          -11.5450    -3.1980    -0.7956 H       
  57 H57          -12.9374    -4.9050     0.2988 H       
  58 H58          -12.0115    -6.2860     2.1116 H       
  59 H59           -9.6819    -5.9740     2.8351 H       
@<TRIPOS>BOND
   1    1    2 1
   2    1   36 1
   3    1   37 1
   4    1   38 1
   5    2    3 1
   6    2   39 1
   7    2   40 1
   8    3   35 1
   9    3    4 1
  10    4    5 2
  11    4   41 1
  12    5   10 1
  13    5    6 1
  14    6    7 1
  15    6   35 2
  16    7    8 1
  17    7   42 1
  18    7   43 1
  19    8    9 1
  20    8   44 1
  21    8   45 1
  22    9   10 1
  23    9   46 1
  24    9   47 1
  25   10   17 1
  26   10   11 1
  27   11   12 1
  28   11   48 1
  29   11   49 1
  30   12   13 2
  31   12   14 am
  32   14   15 am
  33   14   19 1
  34   15   16 2
  35   15   17 am
  36   17   18 1
  37   18   50 1
  38   18   51 1
  39   18   52 1
  40   19   25 ar
  41   19   20 ar
  42   20   21 1
  43   20   22 ar
  44   22   23 ar
  45   22   53 1
  46   23   24 ar
  47   23   27 1
  48   24   25 ar
  49   24   54 1
  50   25   26 1
  51   27   28 3
  52   28   29 1
  53   29   34 ar
  54   29   30 ar
  55   30   31 ar
  56   30   55 1
  57   31   32 ar
  58   31   56 1
  59   32   33 ar
  60   32   57 1
  61   33   34 ar
  62   33   58 1
  63   34   59 1

#	End of record

