#	Name: ASD01908392
#	Creating user name:	WinNT
#	Creation time:	15. 06. 2019 19:55

#	Modifying user name:	WinNT
#	Modification time:	15. 06. 2019 19:55

#	Program:	/corina/corina34_cracker 3.40 0067  02.08.2006

@<TRIPOS>MOLECULE
ASD01908392
  45   49    0    0    0
SMALL
NO_CHARGES


@<TRIPOS>ATOM
   1 C1             0.0813     1.2922    -1.2935 C.ar    
   2 C2             0.0951    -0.0839    -1.1659 C.ar    
   3 C3             1.2853    -0.7380    -0.9235 C.ar    
   4 C4             2.4719    -0.0239    -0.8064 C.ar    
   5 C5             2.4583     1.3465    -0.9334 C.ar    
   6 C6             1.2579     2.0032    -1.1777 C.ar    
   7 S7             4.1069    -0.6115    -0.5023 S.o2    
   8 N8             5.0915     0.7243    -0.4733 N.am    
   9 S9             4.0808     2.0122    -0.7456 S.o2    
  10 C10            6.4720     0.7574    -0.2641 C.ar    
  11 C11            7.1470     1.9703    -0.2715 C.ar    
  12 C12            7.1705    -0.4231    -0.0429 C.ar    
  13 C13            8.5363    -0.3911     0.1641 C.ar    
  14 C14            9.2118     0.8138     0.1517 C.ar    
  15 C15            8.5183     1.9988    -0.0633 C.ar    
  16 O16            4.4447     2.5505    -2.0093 O.2     
  17 O17            4.0675     2.7751     0.4532 O.2     
  18 O18            4.1065    -1.1410     0.8163 O.2     
  19 O19            4.4838    -1.3656    -1.6462 O.2     
  20 N20            9.2030     3.2181    -0.0761 N.am    
  21 C21           10.4485     3.2862    -0.5865 C.2     
  22 C22           11.1312     4.5901    -0.6948 C.ar    
  23 O23           11.0097     2.2734    -0.9577 O.2     
  24 C24           12.4226     4.6628    -1.2238 C.ar    
  25 C25           13.0579     5.8851    -1.3239 C.ar    
  26 C26           12.4099     7.0449    -0.8969 C.ar    
  27 C27           11.1268     6.9713    -0.3712 C.ar    
  28 C28           10.4859     5.7557    -0.2742 C.ar    
  29 O29           14.2938     6.2250    -1.7944 O.3     
  30 C30           14.2373     7.6443    -2.0304 C.3     
  31 O31           13.2406     8.1070    -1.1003 O.3     
  32 H32           -0.8469     1.8089    -1.4877 H       
  33 H33           -0.8232    -0.6454    -1.2553 H       
  34 H34            1.2950    -1.8133    -0.8236 H       
  35 H35            1.2461     3.0785    -1.2779 H       
  36 H36            6.6058     2.8897    -0.4392 H       
  37 H37            6.6453    -1.3668    -0.0322 H       
  38 H38            9.0769    -1.3101     0.3362 H       
  39 H39           10.2793     0.8355     0.3142 H       
  40 H40            8.7815     4.0148     0.2824 H       
  41 H41           12.9232     3.7644    -1.5535 H       
  42 H42           10.6279     7.8706    -0.0414 H       
  43 H43            9.4878     5.7026     0.1349 H       
  44 H44           15.2018     8.1062    -1.8193 H       
  45 H45           13.9293     7.8500    -3.0555 H       
@<TRIPOS>BOND
   1    1    2 ar
   2    1    6 ar
   3    1   32 1
   4    2    3 ar
   5    2   33 1
   6    3    4 ar
   7    3   34 1
   8    4    5 ar
   9    4    7 1
  10    5    6 ar
  11    5    9 1
  12    6   35 1
  13    7    8 am
  14    7   18 2
  15    7   19 2
  16    8    9 am
  17    8   10 1
  18    9   16 2
  19    9   17 2
  20   10   11 ar
  21   10   12 ar
  22   11   15 ar
  23   11   36 1
  24   12   13 ar
  25   12   37 1
  26   13   14 ar
  27   13   38 1
  28   14   15 ar
  29   14   39 1
  30   15   20 1
  31   20   21 am
  32   20   40 1
  33   21   22 1
  34   21   23 2
  35   22   24 ar
  36   22   28 ar
  37   24   25 ar
  38   24   41 1
  39   25   26 ar
  40   25   29 1
  41   26   27 ar
  42   26   31 1
  43   27   28 ar
  44   27   42 1
  45   28   43 1
  46   29   30 1
  47   30   31 1
  48   30   44 1
  49   30   45 1

#	End of record

