#	Name: ASD01901389
#	Creating user name:	WinNT
#	Creation time:	15. 06. 2019 19:53

#	Modifying user name:	WinNT
#	Modification time:	15. 06. 2019 19:53

#	Program:	/corina/corina34_cracker 3.40 0067  02.08.2006

@<TRIPOS>MOLECULE
ASD01901389
  44   47    0    0    0
SMALL
NO_CHARGES


@<TRIPOS>ATOM
   1 C1            -0.0168     1.3893     0.0097 C.ar    
   2 C2             1.1746     2.0951     0.0021 C.ar    
   3 C3             2.3890     1.4101    -0.0132 C.ar    
   4 C4             2.4049     0.0248    -0.0212 C.ar    
   5 C5             1.2186    -0.6824    -0.0142 C.ar    
   6 C6             0.0021    -0.0041     0.0020 C.ar    
   7 C7            -1.2725    -0.7645     0.0106 C.2     
   8 N8            -3.2669    -1.3642     1.1229 N.2     
   9 C9            -2.1425    -0.6909     1.1201 C.2     
  10 C10           -1.6232    -1.5414    -1.0579 C.2     
  11 N11           -2.8015    -2.2266    -1.0176 N.pl3   
  12 C12           -3.6168    -2.1330     0.0808 C.2     
  13 C13           -3.4160    -3.0662    -1.9071 C.2     
  14 C14           -4.5764    -3.4621    -1.3422 C.2     
  15 N15           -4.6823    -2.8904    -0.1391 N.2     
  16 C16           -5.5837    -4.3946    -1.9641 C.3     
  17 O17           -5.1231    -4.8016    -3.2542 O.3     
  18 C18           -5.9210    -5.6504    -3.9549 C.ar    
  19 C19           -7.1247    -6.0774    -3.4138 C.ar    
  20 C20           -5.5349    -6.0856    -5.2141 C.ar    
  21 C21           -6.3469    -6.9478    -5.9253 C.ar    
  22 C22           -7.5459    -7.3770    -5.3820 C.ar    
  23 C23           -7.9348    -6.9396    -4.1272 C.ar    
  24 F24           -8.3395    -8.2195    -6.0789 F       
  25 N25            1.1598     3.4946     0.0093 N.pl3   
  26 O26            3.5594     2.1028    -0.0206 O.3     
  27 C27            4.7661     1.3376    -0.0363 C.3     
  28 H28           -0.9586     1.9177     0.0260 H       
  29 H29            3.3469    -0.5032    -0.0334 H       
  30 H30            1.2342    -1.7622    -0.0212 H       
  31 H31           -1.8804    -0.0778     1.9697 H       
  32 H32           -0.9774    -1.6112    -1.9207 H       
  33 H33           -3.0429    -3.3568    -2.8781 H       
  34 H34           -5.7073    -5.2718    -1.3290 H       
  35 H35           -6.5400    -3.8814    -2.0650 H       
  36 H36           -7.4283    -5.7363    -2.4351 H       
  37 H37           -4.6000    -5.7504    -5.6384 H       
  38 H38           -6.0465    -7.2868    -6.9057 H       
  39 H39           -8.8720    -7.2722    -3.7062 H       
  40 H40            0.3147     3.9707     0.0196 H       
  41 H41            1.9946     3.9885     0.0040 H       
  42 H42            4.8063     0.7043     0.8500 H       
  43 H43            4.7893     0.7138    -0.9299 H       
  44 H44            5.6233     2.0108    -0.0408 H       
@<TRIPOS>BOND
   1    1    6 ar
   2    1    2 ar
   3    1   28 1
   4    2    3 ar
   5    2   25 1
   6    3    4 ar
   7    3   26 1
   8    4    5 ar
   9    4   29 1
  10    5    6 ar
  11    5   30 1
  12    6    7 1
  13    7   10 2
  14    7    9 1
  15    8    9 2
  16    8   12 1
  17    9   31 1
  18   10   11 1
  19   10   32 1
  20   11   13 1
  21   11   12 1
  22   12   15 2
  23   13   14 2
  24   13   33 1
  25   14   15 1
  26   14   16 1
  27   16   17 1
  28   16   34 1
  29   16   35 1
  30   17   18 1
  31   18   20 ar
  32   18   19 ar
  33   19   23 ar
  34   19   36 1
  35   20   21 ar
  36   20   37 1
  37   21   22 ar
  38   21   38 1
  39   22   23 ar
  40   22   24 1
  41   23   39 1
  42   25   40 1
  43   25   41 1
  44   26   27 1
  45   27   42 1
  46   27   43 1
  47   27   44 1

#	End of record

