#	Name: ASD03430997
#	Creating user name:	WinNT
#	Creation time:	15. 06. 2019 20:41

#	Modifying user name:	WinNT
#	Modification time:	15. 06. 2019 20:41

#	Program:	/corina/corina34_cracker 3.40 0067  02.08.2006

@<TRIPOS>MOLECULE
ASD03430997
  47   52    0    0    0
SMALL
NO_CHARGES


@<TRIPOS>ATOM
   1 O1            -0.0173     1.4277     0.0099 O.3     
   2 C2             0.0021    -0.0041     0.0020 C.3     
   3 C3             1.0281    -0.4752     1.0418 C.3     
   4 O4             2.3084     0.0540     0.6804 O.3     
   5 C5             2.3529     1.3712     0.3391 C.ar    
   6 C6             1.1906     2.0559     0.0017 C.ar    
   7 C7             3.5682     2.0317     0.3323 C.ar    
   8 C8             3.6433     3.3746    -0.0244 C.ar    
   9 C9             2.4743     4.0507    -0.3593 C.ar    
  10 C10            1.2595     3.3961    -0.3448 C.ar    
  11 O11            4.9311     3.8226     0.0054 O.3     
  12 C12            4.9696     1.5969     0.6652 C.3     
  13 C13            5.7278     2.9251     0.8024 C.3     
  14 N14            5.6020    -0.3888     1.6049 N.am    
  15 C15            5.0320     0.7889     1.9296 C.2     
  16 C16            5.5663     0.7210    -0.3960 C.ar    
  17 C17            5.7889     0.8784    -1.7458 C.ar    
  18 C18            6.3779    -0.1393    -2.4745 C.ar    
  19 C19            6.7423    -1.3151    -1.8446 C.ar    
  20 C20            6.5199    -1.4788    -0.4935 C.ar    
  21 C21            5.9264    -0.4600     0.2481 C.ar    
  22 O22            4.6459     1.1295     3.0278 O.2     
  23 C23            5.8529    -1.4678     2.5636 C.3     
  24 C24            4.6564    -2.3825     2.6148 C.ar    
  25 C25            4.6350    -3.5236     1.8350 C.ar    
  26 C26            3.5298    -4.3587     1.8898 C.ar    
  27 C27            2.4827    -4.0132     2.7308 C.ar    
  28 C28            2.5750    -2.8564     3.4809 C.ar    
  29 N29            3.6444    -2.0880     3.4071 N.ar    
  30 H30           -0.9854    -0.3867     0.2602 H       
  31 H31            0.2891    -0.3625    -0.9865 H       
  32 H32            0.7449    -0.1103     2.0291 H       
  33 H33            1.0695    -1.5644     1.0498 H       
  34 H34            2.5179     5.0947    -0.6323 H       
  35 H35            0.3580     3.9308    -0.6049 H       
  36 H36            6.7360     2.8389     0.3973 H       
  37 H37            5.7538     3.2504     1.8424 H       
  38 H38            5.5037     1.7976    -2.2360 H       
  39 H39            6.5525    -0.0160    -3.5331 H       
  40 H40            7.2028    -2.1092    -2.4136 H       
  41 H41            6.8071    -2.4001    -0.0086 H       
  42 H42            6.7303    -2.0343     2.2516 H       
  43 H43            6.0276    -1.0424     3.5518 H       
  44 H44            5.4686    -3.7614     1.1908 H       
  45 H45            3.4852    -5.2567     1.2916 H       
  46 H46            1.6059    -4.6402     2.7984 H       
  47 H47            1.7638    -2.5803     4.1382 H       
@<TRIPOS>BOND
   1    1    2 1
   2    1    6 1
   3    2    3 1
   4    2   30 1
   5    2   31 1
   6    3    4 1
   7    3   32 1
   8    3   33 1
   9    4    5 1
  10    5    6 ar
  11    5    7 ar
  12    6   10 ar
  13    7    8 ar
  14    7   12 1
  15    8    9 ar
  16    8   11 1
  17    9   10 ar
  18    9   34 1
  19   10   35 1
  20   11   13 1
  21   12   13 1
  22   12   15 1
  23   12   16 1
  24   13   36 1
  25   13   37 1
  26   14   15 am
  27   14   21 1
  28   14   23 1
  29   15   22 2
  30   16   17 ar
  31   16   21 ar
  32   17   18 ar
  33   17   38 1
  34   18   19 ar
  35   18   39 1
  36   19   20 ar
  37   19   40 1
  38   20   21 ar
  39   20   41 1
  40   23   24 1
  41   23   42 1
  42   23   43 1
  43   24   25 ar
  44   24   29 ar
  45   25   26 ar
  46   25   44 1
  47   26   27 ar
  48   26   45 1
  49   27   28 ar
  50   27   46 1
  51   28   29 ar
  52   28   47 1

#	End of record

