#	Name: ASD01882103
#	Creating user name:	WinNT
#	Creation time:	15. 06. 2019 19:43

#	Modifying user name:	WinNT
#	Modification time:	15. 06. 2019 19:43

#	Program:	/corina/corina34_cracker 3.40 0067  02.08.2006

@<TRIPOS>MOLECULE
ASD01882103
  51   54    0    0    0
SMALL
NO_CHARGES


@<TRIPOS>ATOM
   1 C1            -0.0161     1.3337     0.0094 C.2     
   2 N2             0.0021    -0.0041     0.0020 N.am    
   3 C3             1.2613    -0.4841    -0.0126 C.2     
   4 C4             2.1640     0.7337    -0.0147 C.3     
   5 N5             1.2200     1.8645     0.0004 N.am    
   6 O6            -1.0354     1.9955     0.0180 O.2     
   7 O7             1.6013    -1.6477    -0.0215 O.2     
   8 C8            -1.1986    -0.8435     0.0097 C.3     
   9 C9             1.5609     3.2893     0.0041 C.3     
  10 C10            1.6916     3.7708     1.4261 C.ar    
  11 C11            2.9179     3.7120     2.0635 C.ar    
  12 C12            3.0436     4.1515     3.3656 C.ar    
  13 C13            1.9317     4.6556     4.0385 C.ar    
  14 C14            0.6985     4.7125     3.3911 C.ar    
  15 C15            0.5860     4.2753     2.0870 C.ar    
  16 C16            2.1261     6.5455     9.4233 C.2     
  17 N17            0.8494     6.9172     9.6193 N.am    
  18 C18            0.0878     6.6562     8.3927 C.3     
  19 C19            1.0667     6.0706     7.4054 C.ar    
  20 C20            0.9450     5.6335     6.1100 C.ar    
  21 C21            2.0602     5.1290     5.4379 C.ar    
  22 C22            3.2948     5.0702     6.0838 C.ar    
  23 C23            3.4178     5.5084     7.3846 C.ar    
  24 C24            2.3015     6.0144     8.0598 C.ar    
  25 C25            1.0407     8.7915    11.1788 C.3     
  26 C26            0.3074     7.4883    10.8547 C.3     
  27 C27            0.4999     6.4957    12.0029 C.3     
  28 F28            0.8647     9.6991    10.1289 F       
  29 F29            0.5231     9.3369    12.3585 F       
  30 F30            2.4049     8.5299    11.3453 F       
  31 O31            3.0114     6.6391    10.2513 O.2     
  32 Cl32           4.9564     5.4329     8.1849 Cl      
  33 H33            2.7924     0.7467     0.8759 H       
  34 H34            2.7753     0.7564    -0.9169 H       
  35 H35           -1.5068    -1.0461    -1.0159 H       
  36 H36           -0.9813    -1.7838     0.5163 H       
  37 H37           -2.0010    -0.3250     0.5345 H       
  38 H38            2.5060     3.4381    -0.5182 H       
  39 H39            0.7749     3.8522    -0.4994 H       
  40 H40            3.7786     3.3209     1.5412 H       
  41 H41            4.0014     4.1047     3.8624 H       
  42 H42           -0.1664     5.1017     3.9078 H       
  43 H43           -0.3679     4.3233     1.5828 H       
  44 H44           -0.7131     5.9446     8.5932 H       
  45 H45           -0.3257     7.5866     8.0033 H       
  46 H46           -0.0119     5.6793     5.6114 H       
  47 H47            4.1568     4.6799     5.5633 H       
  48 H48           -0.7555     7.6922    10.7250 H       
  49 H49            0.0966     6.9206    12.9221 H       
  50 H50           -0.0226     5.5673    11.7721 H       
  51 H51            1.5628     6.2918    12.1327 H       
@<TRIPOS>BOND
   1    1    2 am
   2    1    5 am
   3    1    6 2
   4    2    3 am
   5    2    8 1
   6    3    4 1
   7    3    7 2
   8    4    5 1
   9    4   33 1
  10    4   34 1
  11    5    9 1
  12    8   35 1
  13    8   36 1
  14    8   37 1
  15    9   10 1
  16    9   38 1
  17    9   39 1
  18   10   11 ar
  19   10   15 ar
  20   11   12 ar
  21   11   40 1
  22   12   13 ar
  23   12   41 1
  24   13   14 ar
  25   13   21 1
  26   14   15 ar
  27   14   42 1
  28   15   43 1
  29   16   17 am
  30   16   24 1
  31   16   31 2
  32   17   18 1
  33   17   26 1
  34   18   19 1
  35   18   44 1
  36   18   45 1
  37   19   20 ar
  38   19   24 ar
  39   20   21 ar
  40   20   46 1
  41   21   22 ar
  42   22   23 ar
  43   22   47 1
  44   23   24 ar
  45   23   32 1
  46   25   26 1
  47   25   28 1
  48   25   29 1
  49   25   30 1
  50   26   27 1
  51   26   48 1
  52   27   49 1
  53   27   50 1
  54   27   51 1

#	End of record

