#	Name: ASD02038006
#	Creating user name:	WinNT
#	Creation time:	15. 06. 2019 20:16

#	Modifying user name:	WinNT
#	Modification time:	15. 06. 2019 20:16

#	Program:	/corina/corina34_cracker 3.40 0067  02.08.2006

@<TRIPOS>MOLECULE
ASD02038006
  56   59    0    0    0
SMALL
NO_CHARGES


@<TRIPOS>ATOM
   1 C1             0.0792     1.2351    -0.6884 C.ar    
   2 C2            -0.0154     0.0077    -0.0459 C.ar    
   3 N3            -1.2114    -0.7175    -0.0918 N.am    
   4 C4            -2.3287    -4.2281    -0.1164 C.3     
   5 N5            -2.3298    -2.7641     0.0080 N.am    
   6 C6            -1.1827    -2.0649    -0.0999 C.2     
   7 C7            -3.3474    -4.6328    -1.1866 C.3     
   8 C8            -4.7117    -4.0325    -0.8395 C.3     
   9 C9            -4.6097    -2.5056    -0.8226 C.3     
  10 C10           -3.6053    -2.0768     0.2517 C.3     
  11 C11           -5.7396    -4.4631    -1.8878 C.3     
  12 O12           -7.0355    -4.0003    -1.5023 O.3     
  13 C13           -8.0702    -4.3008    -2.3318 C.ar    
  14 C14           -9.3552    -3.8819    -2.0174 C.ar    
  15 C15           -7.8399    -5.0209    -3.4946 C.ar    
  16 C16           -8.8902    -5.3266    -4.3378 C.ar    
  17 C17          -10.1767    -4.9129    -4.0210 C.ar    
  18 C18          -10.4056    -4.1871    -2.8592 C.ar    
  19 N19          -11.2442    -5.2212    -4.8732 N.am    
  20 C20          -12.4004    -4.5375    -4.7923 C.2     
  21 C21          -12.5648    -3.4179    -3.8002 C.3     
  22 C22          -11.8033    -3.7401    -2.5177 C.3     
  23 O23           -0.1218    -2.6497    -0.2046 O.2     
  24 O24          -13.3206    -4.8267    -5.5277 O.2     
  25 C25            1.0795    -0.4989     0.6419 C.ar    
  26 C26            2.2586     0.2190     0.6850 C.ar    
  27 C27            2.3494     1.4412     0.0446 C.ar    
  28 C28            1.2612     1.9482    -0.6415 C.ar    
  29 F29            4.4456     1.8584    -0.9877 F       
  30 F30            3.3554     3.5909     0.0266 F       
  31 F31            4.3062     1.9427     1.2910 F       
  32 C32            3.6372     2.2223     0.0945 C.3     
  33 H33           -0.7691     1.6297    -1.2278 H       
  34 H34           -2.0611    -0.2503    -0.1179 H       
  35 H35           -1.3358    -4.5692    -0.4095 H       
  36 H36           -2.6042    -4.6761     0.8383 H       
  37 H37           -3.0223    -4.2598    -2.1578 H       
  38 H38           -3.4263    -5.7194    -1.2214 H       
  39 H39           -5.0249    -4.3864     0.1427 H       
  40 H40           -4.2727    -2.1526    -1.7973 H       
  41 H41           -5.5870    -2.0781    -0.5983 H       
  42 H42           -3.9849    -2.3494     1.2365 H       
  43 H43           -3.4547    -0.9984     0.2016 H       
  44 H44           -5.4738    -4.0353    -2.8545 H       
  45 H45           -5.7493    -5.5505    -1.9619 H       
  46 H46           -9.5334    -3.3176    -1.1140 H       
  47 H47           -6.8387    -5.3425    -3.7409 H       
  48 H48           -8.7105    -5.8869    -5.2435 H       
  49 H49          -11.1495    -5.9320    -5.5263 H       
  50 H50          -12.1731    -2.4949    -4.2277 H       
  51 H51          -13.6228    -3.2890    -3.5718 H       
  52 H52          -12.3166    -4.5381    -1.9813 H       
  53 H53          -11.7581    -2.8508    -1.8890 H       
  54 H54            1.0089    -1.4531     1.1429 H       
  55 H55            3.1104    -0.1745     1.2198 H       
  56 H56            1.3354     2.9028    -1.1410 H       
@<TRIPOS>BOND
   1    1    2 ar
   2    1   28 ar
   3    1   33 1
   4    2   25 ar
   5    2    3 1
   6    3    6 am
   7    3   34 1
   8    4    5 1
   9    4    7 1
  10    4   35 1
  11    4   36 1
  12    5    6 am
  13    5   10 1
  14    6   23 2
  15    7    8 1
  16    7   37 1
  17    7   38 1
  18    8    9 1
  19    8   11 1
  20    8   39 1
  21    9   10 1
  22    9   40 1
  23    9   41 1
  24   10   42 1
  25   10   43 1
  26   11   12 1
  27   11   44 1
  28   11   45 1
  29   12   13 1
  30   13   14 ar
  31   13   15 ar
  32   14   18 ar
  33   14   46 1
  34   15   16 ar
  35   15   47 1
  36   16   17 ar
  37   16   48 1
  38   17   18 ar
  39   17   19 1
  40   18   22 1
  41   19   20 am
  42   19   49 1
  43   20   21 1
  44   20   24 2
  45   21   22 1
  46   21   50 1
  47   21   51 1
  48   22   52 1
  49   22   53 1
  50   25   26 ar
  51   25   54 1
  52   26   27 ar
  53   26   55 1
  54   27   28 ar
  55   27   32 1
  56   28   56 1
  57   29   32 1
  58   30   32 1
  59   31   32 1

#	End of record

