#	Name: ASD03430902
#	Creating user name:	WinNT
#	Creation time:	15. 06. 2019 20:41

#	Modifying user name:	WinNT
#	Modification time:	15. 06. 2019 20:41

#	Program:	/corina/corina34_cracker 3.40 0067  02.08.2006

@<TRIPOS>MOLECULE
ASD03430902
  45   50    0    0    0
SMALL
NO_CHARGES


@<TRIPOS>ATOM
   1 O1            -0.0175     1.4361     0.0099 O.3     
   2 C2             0.0021    -0.0041     0.0020 C.3     
   3 C3             1.3455    -0.3170    -0.6703 C.3     
   4 C4             2.1585     0.9230    -0.4089 C.ar    
   5 C5             1.2627     1.9061     0.0002 C.ar    
   6 C6             1.7486     3.1685     0.3272 C.ar    
   7 C7             3.1010     3.4445     0.2345 C.ar    
   8 C8             3.9866     2.4549    -0.1858 C.ar    
   9 C9             3.5069     1.1957    -0.5054 C.ar    
  10 N10            2.1656    -2.4024    -1.1217 N.am    
  11 C11            1.9860    -1.5475    -0.0951 C.2     
  12 C12            1.1912    -0.5970    -2.1355 C.ar    
  13 C13            0.6792     0.1219    -3.1921 C.ar    
  14 C14            0.6793    -0.4216    -4.4648 C.ar    
  15 C15            1.1946    -1.6876    -4.6722 C.ar    
  16 C16            1.7080    -2.4126    -3.6165 C.ar    
  17 C17            1.7104    -1.8744    -2.3323 C.ar    
  18 O18            2.2834    -1.7353     1.0657 O.2     
  19 O19            5.2493     2.9747    -0.1986 O.3     
  20 C20            5.1822     4.1639     0.6107 C.3     
  21 O21            3.8103     4.5833     0.4890 O.3     
  22 C22            2.7680    -3.7307    -0.9839 C.3     
  23 C23            1.6900    -4.7440    -0.6975 C.ar    
  24 C24            1.0571    -5.3933    -1.7410 C.ar    
  25 C25            0.0686    -6.3231    -1.4788 C.ar    
  26 C26           -0.2874    -6.6038    -0.1720 C.ar    
  27 C27            0.3461    -5.9539     0.8719 C.ar    
  28 C28            1.3381    -5.0281     0.6089 C.ar    
  29 Br29          -1.6402    -7.8753     0.1874 Br      
  30 H30           -0.0225    -0.3968     1.0185 H       
  31 H31           -0.8261    -0.3989    -0.5865 H       
  32 H32            1.0654     3.9379     0.6552 H       
  33 H33            4.1904     0.4253    -0.8304 H       
  34 H34            0.2770     1.1107    -3.0275 H       
  35 H35            0.2774     0.1418    -5.2940 H       
  36 H36            1.1950    -2.1114    -5.6656 H       
  37 H37            2.1095    -3.4006    -3.7868 H       
  38 H38            5.4220     3.9346     1.6489 H       
  39 H39            5.8529     4.9301     0.2219 H       
  40 H40            3.2791    -3.9956    -1.9095 H       
  41 H41            3.4850    -3.7211    -0.1629 H       
  42 H42            1.3349    -5.1738    -2.7613 H       
  43 H43           -0.4260    -6.8301    -2.2941 H       
  44 H44            0.0682    -6.1725     1.8924 H       
  45 H45            1.8328    -4.5205     1.4238 H       
@<TRIPOS>BOND
   1    1    2 1
   2    1    5 1
   3    2    3 1
   4    2   30 1
   5    2   31 1
   6    3    4 1
   7    3   11 1
   8    3   12 1
   9    4    5 ar
  10    4    9 ar
  11    5    6 ar
  12    6    7 ar
  13    6   32 1
  14    7    8 ar
  15    7   21 1
  16    8    9 ar
  17    8   19 1
  18    9   33 1
  19   10   11 am
  20   10   17 1
  21   10   22 1
  22   11   18 2
  23   12   13 ar
  24   12   17 ar
  25   13   14 ar
  26   13   34 1
  27   14   15 ar
  28   14   35 1
  29   15   16 ar
  30   15   36 1
  31   16   17 ar
  32   16   37 1
  33   19   20 1
  34   20   21 1
  35   20   38 1
  36   20   39 1
  37   22   23 1
  38   22   40 1
  39   22   41 1
  40   23   24 ar
  41   23   28 ar
  42   24   25 ar
  43   24   42 1
  44   25   26 ar
  45   25   43 1
  46   26   27 ar
  47   26   29 1
  48   27   28 ar
  49   27   44 1
  50   28   45 1

#	End of record

