#	Name: ASD01410421
#	Creating user name:	WinNT
#	Creation time:	15. 06. 2019 19:17

#	Modifying user name:	WinNT
#	Modification time:	15. 06. 2019 19:17

#	Program:	/corina/corina34_cracker 3.40 0067  02.08.2006

@<TRIPOS>MOLECULE
ASD01410421
  74   78    0    0    0
SMALL
NO_CHARGES


@<TRIPOS>ATOM
   1 C1            -0.0762     0.9776     0.3587 C.ar    
   2 N2            -0.1687    -0.3167     0.1237 N.ar    
   3 C3            -1.3285    -0.8968    -0.1158 C.ar    
   4 C4            -2.4979    -0.1604    -0.1291 C.ar    
   5 C5            -2.4403     1.2034     0.1138 C.ar    
   6 C6            -1.2037     1.7768     0.3676 C.ar    
   7 C7             1.2738     1.5913     0.6268 C.3     
   8 C8             1.9466     0.8563     1.7879 C.3     
   9 C9            -1.3792    -2.3799    -0.3785 C.3     
  10 C10           -0.4365    -2.7259    -1.5328 C.3     
  11 C11           -3.6927     2.0417     0.1075 C.3     
  12 C12           -4.2869     2.0812     1.5169 C.3     
  13 C13           -5.5584     2.9322     1.5106 C.3     
  14 O14           -5.2440     4.2632     1.0848 O.3     
  15 C15           -6.2895     5.1051     0.9341 C.2     
  16 C16           -7.5656     4.5959     0.5959 C.2     
  17 C17           -7.7425     3.2773     0.3983 C.2     
  18 C18           -6.5741     2.3324     0.5317 C.3     
  19 C19           -6.1572     2.9712     2.9180 C.3     
  20 C20           -6.4896     1.5416     3.4129 C.3     
  21 C21           -6.4804     1.6620     4.9508 C.3     
  22 C22           -5.6010     2.8779     5.2913 C.3     
  23 C23           -5.1064     3.4540     3.9484 C.3     
  24 O24           -8.9629     2.8004     0.0821 O.3     
  25 C25           -8.7341     5.5372     0.4558 C.3     
  26 C26           -9.3469     5.7825     1.8105 C.2     
  27 O27           -6.1339     6.3017     1.0896 O.2     
  28 N28           -8.9985     6.7412     2.6354 N.2     
  29 N29          -10.3245     5.0656     2.3482 N.2     
  30 C30          -10.6283     5.5487     3.5476 C.2     
  31 N31           -9.8075     6.6180     3.7725 N.pl3   
  32 N32          -11.5264     5.1817     4.4692 N.2     
  33 C33          -11.6346     5.8361     5.6029 C.2     
  34 C34          -10.8073     6.9350     5.8663 C.2     
  35 C35           -9.8970     7.3183     4.9347 C.2     
  36 C36           -8.9922     8.4963     5.1891 C.3     
  37 C37          -12.6540     5.4029     6.6246 C.3     
  38 H38           -3.4447    -0.6412    -0.3266 H       
  39 H39           -1.1216     2.8361     0.5613 H       
  40 H40            1.8948     1.5071    -0.2650 H       
  41 H41            1.1500     2.6429     0.8855 H       
  42 H42            2.0704    -0.1953     1.5293 H       
  43 H43            2.9230     1.3001     1.9818 H       
  44 H44            1.3256     0.9404     2.6798 H       
  45 H45           -1.0697    -2.9183     0.5173 H       
  46 H46           -2.3970    -2.6676    -0.6419 H       
  47 H47           -0.7460    -2.1875    -2.4286 H       
  48 H48            0.5813    -2.4382    -1.2694 H       
  49 H49           -0.4732    -3.7986    -1.7228 H       
  50 H50           -3.4502     3.0548    -0.2130 H       
  51 H51           -4.4177     1.6066    -0.5804 H       
  52 H52           -4.5294     1.0680     1.8375 H       
  53 H53           -3.5619     2.5162     2.2048 H       
  54 H54           -6.1040     2.1936    -0.4419 H       
  55 H55           -6.9231     1.3718     0.9105 H       
  56 H56           -7.0444     3.6040     2.9413 H       
  57 H57           -7.4743     1.2350     3.0601 H       
  58 H58           -5.7277     0.8362     3.0809 H       
  59 H59           -7.4942     1.8196     5.3190 H       
  60 H60           -6.0580     0.7600     5.3935 H       
  61 H61           -6.1880     3.6256     5.8248 H       
  62 H62           -4.7518     2.5660     5.8992 H       
  63 H63           -4.1212     3.0575     3.7030 H       
  64 H64           -5.0818     4.5430     3.9864 H       
  65 H65           -9.0324     2.2726    -0.7251 H       
  66 H66           -8.3907     6.4826     0.0358 H       
  67 H67           -9.4794     5.0953    -0.2055 H       
  68 H68          -10.8958     7.4743     6.7978 H       
  69 H69           -9.2103     8.9166     6.1708 H       
  70 H70           -7.9527     8.1699     5.1564 H       
  71 H71           -9.1591     9.2545     4.4240 H       
  72 H72          -13.2011     4.5386     6.2481 H       
  73 H73          -12.1479     5.1365     7.5525 H       
  74 H74          -13.3504     6.2202     6.8122 H       
@<TRIPOS>BOND
   1    1    2 ar
   2    1    7 1
   3    1    6 ar
   4    2    3 ar
   5    3    4 ar
   6    3    9 1
   7    4    5 ar
   8    4   38 1
   9    5    6 ar
  10    5   11 1
  11    6   39 1
  12    7    8 1
  13    7   40 1
  14    7   41 1
  15    8   42 1
  16    8   43 1
  17    8   44 1
  18    9   10 1
  19    9   45 1
  20    9   46 1
  21   10   47 1
  22   10   48 1
  23   10   49 1
  24   11   12 1
  25   11   50 1
  26   11   51 1
  27   12   13 1
  28   12   52 1
  29   12   53 1
  30   13   14 1
  31   13   19 1
  32   13   18 1
  33   14   15 1
  34   15   16 1
  35   15   27 2
  36   16   17 2
  37   16   25 1
  38   17   18 1
  39   17   24 1
  40   18   54 1
  41   18   55 1
  42   19   20 1
  43   19   23 1
  44   19   56 1
  45   20   21 1
  46   20   57 1
  47   20   58 1
  48   21   22 1
  49   21   59 1
  50   21   60 1
  51   22   23 1
  52   22   61 1
  53   22   62 1
  54   23   63 1
  55   23   64 1
  56   24   65 1
  57   25   26 1
  58   25   66 1
  59   25   67 1
  60   26   28 2
  61   26   29 1
  62   28   31 1
  63   29   30 2
  64   30   31 1
  65   30   32 1
  66   31   35 1
  67   32   33 2
  68   33   34 1
  69   33   37 1
  70   34   35 2
  71   34   68 1
  72   35   36 1
  73   36   69 1
  74   36   70 1
  75   36   71 1
  76   37   72 1
  77   37   73 1
  78   37   74 1

#	End of record

