#	Name: ASD02560045
#	Creating user name:	WinNT
#	Creation time:	15. 06. 2019 20:24

#	Modifying user name:	WinNT
#	Modification time:	15. 06. 2019 20:24

#	Program:	/corina/corina34_cracker 3.40 0067  02.08.2006

@<TRIPOS>MOLECULE
ASD02560045
  44   45    0    0    0
SMALL
NO_CHARGES


@<TRIPOS>ATOM
   1 C1            -0.0164     1.3600     0.0095 C.2     
   2 C2             0.0021    -0.0041     0.0020 C.2     
   3 C3            -1.4126    -0.4296     0.0141 C.2     
   4 C4            -2.1496     0.7184     0.0278 C.2     
   5 N5            -1.3048     1.7768     0.0300 N.pl3   
   6 C6             1.1961     2.2549     0.0027 C.3     
   7 C7            -1.7266     3.1797     0.0434 C.3     
   8 C8            -1.8636     3.6572     1.4905 C.3     
   9 C9            -3.6545     0.7958     0.0428 C.3     
  10 C10           -4.1699     0.8291    -1.3729 C.ar    
  11 C11           -1.9222    -1.8087     0.0119 C.2     
  12 O12           -2.1673    -2.4348    -1.1564 O.3     
  13 C13           -2.6691    -3.7953    -1.0826 C.3     
  14 C14            1.1878    -0.8732    -0.0147 C.2     
  15 O15            1.7195    -1.2654    -1.1897 O.3     
  16 O16            1.6887    -1.2381     1.0310 O.2     
  17 C17            2.8896    -2.1230    -1.1303 C.3     
  18 C18           -4.4679    -0.3512    -2.0280 C.ar    
  19 C19           -4.9406    -0.3206    -3.3266 C.ar    
  20 C20           -5.1158     0.8902    -3.9701 C.ar    
  21 C21           -4.8187     2.0705    -3.3147 C.ar    
  22 C22           -4.3501     2.0402    -2.0146 C.ar    
  23 O23           -2.1226    -2.3843     1.0637 O.2     
  24 H24            1.4784     2.4765    -1.0265 H       
  25 H25            0.9651     3.1838     0.5242 H       
  26 H26            2.0219     1.7516     0.5056 H       
  27 H27           -0.9825     3.7878    -0.4710 H       
  28 H28           -2.6870     3.2752    -0.4632 H       
  29 H29           -0.9032     3.5618     1.9971 H       
  30 H30           -2.1775     4.7010     1.5005 H       
  31 H31           -2.6077     3.0491     2.0049 H       
  32 H32           -4.0581    -0.0770     0.5560 H       
  33 H33           -3.9666     1.7006     0.5644 H       
  34 H34           -3.6151    -3.8048    -0.5412 H       
  35 H35           -2.8234    -4.1809    -2.0904 H       
  36 H36           -1.9456    -4.4217    -0.5608 H       
  37 H37            3.6921    -1.6066    -0.6035 H       
  38 H38            2.6399    -3.0422    -0.6005 H       
  39 H39            3.2154    -2.3638    -2.1422 H       
  40 H40           -4.3310    -1.2972    -1.5252 H       
  41 H41           -5.1727    -1.2428    -3.8386 H       
  42 H42           -5.4845     0.9140    -4.9849 H       
  43 H43           -4.9553     3.0165    -3.8176 H       
  44 H44           -4.1180     2.9623    -1.5026 H       
@<TRIPOS>BOND
   1    1    2 2
   2    1    6 1
   3    1    5 1
   4    2    3 1
   5    2   14 1
   6    3    4 2
   7    3   11 1
   8    4    5 1
   9    4    9 1
  10    5    7 1
  11    6   24 1
  12    6   25 1
  13    6   26 1
  14    7    8 1
  15    7   27 1
  16    7   28 1
  17    8   29 1
  18    8   30 1
  19    8   31 1
  20    9   10 1
  21    9   32 1
  22    9   33 1
  23   10   18 ar
  24   10   22 ar
  25   11   12 1
  26   11   23 2
  27   12   13 1
  28   13   34 1
  29   13   35 1
  30   13   36 1
  31   14   15 1
  32   14   16 2
  33   15   17 1
  34   17   37 1
  35   17   38 1
  36   17   39 1
  37   18   19 ar
  38   18   40 1
  39   19   20 ar
  40   19   41 1
  41   20   21 ar
  42   20   42 1
  43   21   22 ar
  44   21   43 1
  45   22   44 1

#	End of record

