#	Name: ASD07931688
#	Creating user name:	WinNT
#	Creation time:	15. 06. 2019 21:13

#	Modifying user name:	WinNT
#	Modification time:	15. 06. 2019 21:13

#	Program:	/corina/corina34_cracker 3.40 0067  02.08.2006

@<TRIPOS>MOLECULE
ASD07931688
  55   58    0    0    0
SMALL
NO_CHARGES


@<TRIPOS>ATOM
   1 C1            -0.0180     1.4754     0.0102 C.2     
   2 C2             0.0021    -0.0041     0.0020 C.2     
   3 N3             1.1814     2.1509     0.0023 N.am    
   4 N4             1.1194    -0.6400     0.4288 N.am    
   5 C5             2.2493     0.1650     0.9143 C.3     
   6 C6             2.4261     1.3707    -0.0208 C.3     
   7 C7            -1.2008     2.1485     0.0195 C.2     
   8 C8            -1.2247     3.5486     0.0291 C.2     
   9 C9            -0.0458     4.2425     0.0303 C.2     
  10 C10            1.2139     3.4948     0.0143 C.2     
  11 O11           -0.9642    -0.6358    -0.3794 O.2     
  12 O12            2.2807     4.0852     0.0118 O.2     
  13 C13            0.4239     6.4402     1.0348 C.2     
  14 N14            0.2552     7.6848     0.6804 N.2     
  15 C15           -0.3161     7.7283    -0.5326 C.2     
  16 C16           -0.5113     6.4636    -0.9513 C.2     
  17 N17           -0.0431     5.6402     0.0404 N.pl3   
  18 C18           -0.6774     8.9771    -1.2948 C.3     
  19 C19            1.2002    -2.1026     0.4064 C.3     
  20 C20            1.7676    -2.5615    -0.9383 C.3     
  21 C21            1.7361    -4.0894    -1.0105 C.3     
  22 C22            2.1691    -4.5266    -2.3477 C.1     
  23 C23            2.5144    -4.8752    -3.4143 C.1     
  24 O24            3.1161    -2.1063    -1.0666 O.3     
  25 C25            2.9356    -5.3004    -4.7152 C.ar    
  26 C26            2.9896    -6.6599    -5.0238 C.ar    
  27 C27            3.3970    -7.0649    -6.2810 C.ar    
  28 C28            3.7516    -6.1237    -7.2335 C.ar    
  29 C29            3.6998    -4.7726    -6.9322 C.ar    
  30 C30            3.2880    -4.3565    -5.6802 C.ar    
  31 C31            4.1959    -6.5713    -8.6022 C.3     
  32 F32            3.0840    -6.6644    -9.4461 F       
  33 F33            5.1019    -5.6424    -9.1253 F       
  34 F34            4.8143    -7.8225    -8.5058 F       
  35 F35            4.0475    -3.8598    -7.8656 F       
  36 F36            3.4497    -8.3811    -6.5812 F       
  37 H37            2.0426     0.5136     1.9261 H       
  38 H38            3.1572    -0.4381     0.9099 H       
  39 H39            2.6247     1.0242    -1.0350 H       
  40 H40            3.2543     1.9881     0.3270 H       
  41 H41           -2.1297     1.5976     0.0190 H       
  42 H42           -2.1668     4.0767     0.0353 H       
  43 H43            0.8650     6.1025     1.9610 H       
  44 H44           -0.9521     6.1566    -1.8883 H       
  45 H45            0.1651     9.2797    -1.9167 H       
  46 H46           -1.5430     8.7793    -1.9270 H       
  47 H47           -0.9156     9.7756    -0.5921 H       
  48 H48            1.8522    -2.4428     1.2110 H       
  49 H49            0.2042    -2.5236     0.5432 H       
  50 H50            1.1658    -2.1470    -1.7471 H       
  51 H51            2.4077    -4.5027    -0.2580 H       
  52 H52            0.7213    -4.4411    -0.8242 H       
  53 H53            3.7099    -2.4368    -0.3787 H       
  54 H54            2.7140    -7.3945    -4.2817 H       
  55 H55            3.2436    -3.3028    -5.4477 H       
@<TRIPOS>BOND
   1    1    2 1
   2    1    3 1
   3    1    7 2
   4    2    4 am
   5    2   11 2
   6    3    6 1
   7    3   10 am
   8    4    5 1
   9    4   19 1
  10    5    6 1
  11    5   37 1
  12    5   38 1
  13    6   39 1
  14    6   40 1
  15    7    8 1
  16    7   41 1
  17    8    9 2
  18    8   42 1
  19    9   10 1
  20    9   17 1
  21   10   12 2
  22   13   14 2
  23   13   17 1
  24   13   43 1
  25   14   15 1
  26   15   16 2
  27   15   18 1
  28   16   17 1
  29   16   44 1
  30   18   45 1
  31   18   46 1
  32   18   47 1
  33   19   20 1
  34   19   48 1
  35   19   49 1
  36   20   21 1
  37   20   24 1
  38   20   50 1
  39   21   22 1
  40   21   51 1
  41   21   52 1
  42   22   23 3
  43   23   25 1
  44   24   53 1
  45   25   26 ar
  46   25   30 ar
  47   26   27 ar
  48   26   54 1
  49   27   28 ar
  50   27   36 1
  51   28   29 ar
  52   28   31 1
  53   29   30 ar
  54   29   35 1
  55   30   55 1
  56   31   32 1
  57   31   33 1
  58   31   34 1

#	End of record

