#	Name: ASD00311072
#	Creating user name:	WinNT
#	Creation time:	15. 06. 2019 18:34

#	Modifying user name:	WinNT
#	Modification time:	15. 06. 2019 18:34

#	Program:	/corina/corina34_cracker 3.40 0067  02.08.2006

@<TRIPOS>MOLECULE
ASD00311072
  37   40    0    0    0
SMALL
NO_CHARGES


@<TRIPOS>ATOM
   1 C1            -0.0167     1.3776     0.0096 C.2     
   2 C2             0.0021    -0.0041     0.0020 C.2     
   3 C3             1.2587    -0.6766    -0.0136 C.2     
   4 C4             2.4314     0.0671    -0.0208 C.2     
   5 C5             2.3576     1.4748    -0.0125 C.2     
   6 N6             1.1651     2.0902     0.0022 N.am    
   7 C7            -1.3434    -0.5753     0.0118 C.2     
   8 C8            -2.3230     0.3265     0.0260 C.2     
   9 S9            -1.6792     1.9564     0.0358 S.3     
  10 O10            3.3826     2.1368    -0.0187 O.2     
  11 C11            3.7477    -0.6125    -0.0365 C.ar    
  12 C12            4.5930    -0.4749    -1.1371 C.ar    
  13 C13            5.8181    -1.1094    -1.1468 C.ar    
  14 C14            6.2090    -1.8823    -0.0654 C.ar    
  15 C15            5.3729    -2.0221     1.0303 C.ar    
  16 C16            4.1481    -1.3873     1.0518 C.ar    
  17 F17            7.4094    -2.5020    -0.0798 F       
  18 C18           -1.5960    -2.0357     0.0064 C.ar    
  19 C19           -2.2072    -2.6433     1.1026 C.ar    
  20 C20           -2.4412    -4.0026     1.0940 C.ar    
  21 C21           -2.0691    -4.7656    -0.0042 C.ar    
  22 C22           -1.4601    -4.1641    -1.0970 C.ar    
  23 C23           -1.2283    -2.8045    -1.0975 C.ar    
  24 O24           -2.3012    -6.1049    -0.0094 O.3     
  25 O25            1.3086    -2.0293    -0.0209 O.3     
  26 Cl26          -4.0151    -0.0614     0.0391 Cl      
  27 H27            1.1330     3.0596     0.0077 H       
  28 H28            4.2890     0.1271    -1.9807 H       
  29 H29            6.4733    -1.0037    -1.9988 H       
  30 H30            5.6821    -2.6257     1.8709 H       
  31 H31            3.4987    -1.4936     1.9082 H       
  32 H32           -2.4966    -2.0503     1.9576 H       
  33 H33           -2.9142    -4.4739     1.9429 H       
  34 H34           -1.1715    -4.7608    -1.9497 H       
  35 H35           -0.7588    -2.3364    -1.9500 H       
  36 H36           -3.1608    -6.3537    -0.3758 H       
  37 H37            2.2058    -2.3897    -0.0314 H       
@<TRIPOS>BOND
   1    1    2 2
   2    1    6 1
   3    1    9 1
   4    2    3 1
   5    2    7 1
   6    3    4 2
   7    3   25 1
   8    4    5 1
   9    4   11 1
  10    5    6 am
  11    5   10 2
  12    6   27 1
  13    7    8 2
  14    7   18 1
  15    8    9 1
  16    8   26 1
  17   11   12 ar
  18   11   16 ar
  19   12   13 ar
  20   12   28 1
  21   13   14 ar
  22   13   29 1
  23   14   15 ar
  24   14   17 1
  25   15   16 ar
  26   15   30 1
  27   16   31 1
  28   18   19 ar
  29   18   23 ar
  30   19   20 ar
  31   19   32 1
  32   20   21 ar
  33   20   33 1
  34   21   22 ar
  35   21   24 1
  36   22   23 ar
  37   22   34 1
  38   23   35 1
  39   24   36 1
  40   25   37 1

#	End of record

