#	Name: ASD01915230
#	Creating user name:	WinNT
#	Creation time:	15. 06. 2019 20:05

#	Modifying user name:	WinNT
#	Modification time:	15. 06. 2019 20:05

#	Program:	/corina/corina34_cracker 3.40 0067  02.08.2006

@<TRIPOS>MOLECULE
ASD01915230
  30   31    0    0    0
SMALL
NO_CHARGES


@<TRIPOS>ATOM
   1 C1            -0.0077     1.3436    -0.1943 C.ar    
   2 C2             0.0216    -0.0349     0.0276 C.ar    
   3 C3            -1.1557    -0.7608     0.0435 C.ar    
   4 C4            -2.3676    -0.1271    -0.1598 C.ar    
   5 C5            -2.4092     1.2517    -0.3823 C.ar    
   6 C6            -1.2266     1.9888    -0.3937 C.ar    
   7 F7            -1.1212    -2.0942     0.2582 F       
   8 C8             1.2515     2.1178    -0.2116 C.2     
   9 N9             2.4293     1.4934    -0.0131 N.am    
  10 O10            1.2247     3.3177    -0.4048 O.2     
  11 C11            3.6268     2.2068    -0.1263 C.ar    
  12 C12            3.6893     3.5316     0.2863 C.ar    
  13 C13            4.8734     4.2333     0.1731 C.ar    
  14 C14            5.9959     3.6186    -0.3507 C.ar    
  15 C15            5.9369     2.2999    -0.7628 C.ar    
  16 C16            4.7577     1.5905    -0.6462 C.ar    
  17 C17            7.2861     4.3875    -0.4731 C.3     
  18 C18           -3.6650     1.9069    -0.5927 C.1     
  19 N19           -4.6612     2.4267    -0.7597 N.1     
  20 H20            0.9655    -0.5351     0.1866 H       
  21 H21           -3.2837    -0.6989    -0.1470 H       
  22 H22           -1.2539     3.0548    -0.5649 H       
  23 H23            2.4464     0.5491     0.2082 H       
  24 H24            2.8128     4.0125     0.6948 H       
  25 H25            4.9227     5.2635     0.4938 H       
  26 H26            6.8151     1.8228    -1.1721 H       
  27 H27            4.7123     0.5605    -0.9679 H       
  28 H28            7.8693     4.2666     0.4398 H       
  29 H29            7.8561     4.0082    -1.3213 H       
  30 H30            7.0663     5.4440    -0.6265 H       
@<TRIPOS>BOND
   1    1    2 ar
   2    1    8 1
   3    1    6 ar
   4    2    3 ar
   5    2   20 1
   6    3    4 ar
   7    3    7 1
   8    4    5 ar
   9    4   21 1
  10    5    6 ar
  11    5   18 1
  12    6   22 1
  13    8    9 am
  14    8   10 2
  15    9   11 1
  16    9   23 1
  17   11   12 ar
  18   11   16 ar
  19   12   13 ar
  20   12   24 1
  21   13   14 ar
  22   13   25 1
  23   14   15 ar
  24   14   17 1
  25   15   16 ar
  26   15   26 1
  27   16   27 1
  28   17   28 1
  29   17   29 1
  30   17   30 1
  31   18   19 3

#	End of record

