#	Name: ASD01120132
#	Creating user name:	WinNT
#	Creation time:	15. 06. 2019 18:59

#	Modifying user name:	WinNT
#	Modification time:	15. 06. 2019 18:59

#	Program:	/corina/corina34_cracker 3.40 0067  02.08.2006

@<TRIPOS>MOLECULE
ASD01120132
  34   34    0    0    0
SMALL
NO_CHARGES


@<TRIPOS>ATOM
   1 C1             0.0240     1.3242     0.0897 C.3     
   2 C2            -0.7303     1.7771    -1.1789 C.3     
   3 O3             0.0425    -0.1080     0.0942 O.3     
   4 O4             1.3616     1.8263     0.0635 O.3     
   5 C5            -0.6986     1.8379     1.3367 C.3     
   6 C6            -0.6152     0.5278    -2.0944 C.3     
   7 O7            -0.0892     2.9060    -1.7760 O.3     
   8 C8            -0.6720    -0.6115    -1.0457 C.3     
   9 P9             2.4442     1.3800    -1.0415 P.3     
  10 O10            0.0089     1.4167     2.5046 O.3     
  11 O11           -1.7179     0.4496    -3.0000 O.3     
  12 C12            0.0120    -1.8677    -1.5889 C.3     
  13 O13            1.9863     1.9164    -2.4888 O.3     
  14 O14            3.8808     2.0036    -0.6679 O.3     
  15 O15            2.5399    -0.0966    -1.0702 O.2     
  16 O16           -0.0947    -2.9209    -0.6290 O.3     
  17 P17            0.5157    -4.3913    -0.8691 P.3     
  18 O18           -0.2522    -5.0975    -2.0953 O.3     
  19 O19            1.9569    -4.2812    -1.1873 O.2     
  20 O20            0.3263    -5.2751     0.4632 O.3     
  21 H21           -1.7735     1.9971    -0.9521 H       
  22 H22           -0.7401     2.9267     1.3099 H       
  23 H23           -1.7116     1.4362     1.3609 H       
  24 H24            0.3329     0.5208    -2.6321 H       
  25 H25           -0.5255     3.2282    -2.5766 H       
  26 H26           -1.7062    -0.8284    -0.7784 H       
  27 H27           -0.3936     1.7073     3.3344 H       
  28 H28           -1.6878    -0.3150    -3.5912 H       
  29 H29           -0.4712    -2.1719    -2.5173 H       
  30 H30            1.0639    -1.6550    -1.7795 H       
  31 H31            1.9027     2.8782    -2.5434 H       
  32 H32            4.5831     1.7753    -1.2921 H       
  33 H33           -1.2033    -5.2027    -1.9555 H       
  34 H34            0.6720    -6.1753     0.3905 H       
@<TRIPOS>BOND
   1    1    3 1
   2    1    4 1
   3    1    5 1
   4    1    2 1
   5    2    6 1
   6    2    7 1
   7    2   21 1
   8    3    8 1
   9    4    9 1
  10    5   10 1
  11    5   22 1
  12    5   23 1
  13    6   11 1
  14    6    8 1
  15    6   24 1
  16    7   25 1
  17    8   12 1
  18    8   26 1
  19    9   13 1
  20    9   14 1
  21    9   15 2
  22   10   27 1
  23   11   28 1
  24   12   16 1
  25   12   29 1
  26   12   30 1
  27   13   31 1
  28   14   32 1
  29   16   17 1
  30   17   18 1
  31   17   19 2
  32   17   20 1
  33   18   33 1
  34   20   34 1

#	End of record

