#	Name: ASD04880035
#	Creating user name:	WinNT
#	Creation time:	15. 06. 2019 20:52

#	Modifying user name:	WinNT
#	Modification time:	15. 06. 2019 20:52

#	Program:	/corina/corina34_cracker 3.40 0067  02.08.2006

@<TRIPOS>MOLECULE
ASD04880035
  81   86    0    0    0
SMALL
NO_CHARGES


@<TRIPOS>ATOM
   1 C1             0.1102     1.1423     0.0615 C.ar    
   2 C2             0.0394    -0.2424     0.0779 C.ar    
   3 C3            -1.1904    -0.8710     0.1442 C.ar    
   4 C4            -2.3518    -0.1229     0.1938 C.ar    
   5 C5            -2.2907     1.2584     0.1779 C.ar    
   6 C6            -1.0617     1.8973     0.1179 C.ar    
   7 N7            -0.9973     3.2966     0.1021 N.am    
   8 C8            -1.9615     4.0087    -0.5141 C.2     
   9 C9            -1.9628     5.4799    -0.4241 C.2     
  10 O10           -2.8306     3.4372    -1.1446 O.2     
  11 N11            1.3534     1.7805    -0.0056 N.3     
  12 C12            1.5077     2.5007    -1.2773 C.3     
  13 C13            2.4492     0.8209     0.1892 C.3     
  14 C14            3.7847     1.5686     0.1883 C.3     
  15 N15            3.9390     2.2888    -1.0834 N.3     
  16 C16            2.8432     3.2484    -1.2782 C.3     
  17 C17            5.1801     2.9260    -1.1504 C.ar    
  18 C18            6.0752     2.6020    -2.1619 C.ar    
  19 C19            5.5199     3.8893    -0.2087 C.ar    
  20 C20            6.7477     4.5173    -0.2778 C.ar    
  21 C21            7.6387     4.1885    -1.2833 C.ar    
  22 C22            7.3017     3.2340    -2.2251 C.ar    
  23 C23            5.7087     1.5618    -3.1888 C.3     
  24 C24           -3.6887    -0.8149     0.2650 C.3     
  25 N25           -4.0559    -1.0272     1.6714 N.3     
  26 N26           -1.0598     6.2499     0.2417 N.2     
  27 C27           -2.8639     6.3243    -0.9963 C.2     
  28 O28           -2.4963     7.5723    -0.6645 O.3     
  29 C29           -1.3918     7.4971     0.0914 C.2     
  30 C30           -0.6525     8.6732     0.6754 C.3     
  31 C31           -0.0890     9.7085    -0.3000 C.3     
  32 C32           -1.3094    10.0500     0.5572 C.3     
  33 C33           -5.3567    -1.7012     1.7799 C.3     
  34 C34           -5.7042    -1.9045     3.2559 C.3     
  35 C35           -7.0590    -2.6064     3.3689 C.3     
  36 N36           -7.3918    -2.8011     4.7823 N.am    
  37 C37           -8.1361    -1.8348     5.5984 C.3     
  38 C38           -7.8691    -2.2415     7.0646 C.3     
  39 C39           -7.5497    -3.7476     6.9208 C.3     
  40 C40           -7.0596    -3.8902     5.4966 C.2     
  41 O41           -6.4492    -4.8449     5.0644 O.2     
  42 H42            0.9447    -0.8300     0.0386 H       
  43 H43           -1.2438    -1.9496     0.1569 H       
  44 H44           -3.2001     1.8397     0.2164 H       
  45 H45           -0.2588     3.7531     0.5348 H       
  46 H46            1.4887     1.7892    -2.1028 H       
  47 H47            0.6916     3.2140    -1.3926 H       
  48 H48            2.3195     0.3095     1.1430 H       
  49 H49            2.4409     0.0903    -0.6196 H       
  50 H50            3.8037     2.2801     1.0138 H       
  51 H51            4.6008     0.8554     0.3036 H       
  52 H52            2.9729     3.7598    -2.2320 H       
  53 H53            2.8515     3.9790    -0.4694 H       
  54 H54            4.8243     4.1470     0.5762 H       
  55 H55            7.0125     5.2662     0.4538 H       
  56 H56            8.5982     4.6816    -1.3355 H       
  57 H57            7.9998     2.9796    -3.0089 H       
  58 H58            5.2123     2.0425    -4.0318 H       
  59 H59            6.6119     1.0606    -3.5367 H       
  60 H60            5.0367     0.8298    -2.7408 H       
  61 H61           -4.4444    -0.1958    -0.2184 H       
  62 H62           -3.6273    -1.7769    -0.2438 H       
  63 H63           -3.3391    -1.5442     2.1582 H       
  64 H64           -3.7130     6.0439    -1.6019 H       
  65 H65           -0.0766     8.4658     1.5773 H       
  66 H66            0.8575    10.1824    -0.0397 H       
  67 H67           -0.2530     9.5389    -1.3642 H       
  68 H68           -2.2763    10.1050     0.0571 H       
  69 H69           -1.1658    10.7486     1.3816 H       
  70 H70           -6.1240    -1.0883     1.3070 H       
  71 H71           -5.3069    -2.6694     1.2816 H       
  72 H72           -4.9369    -2.5174     3.7288 H       
  73 H73           -5.7540    -0.9363     3.7542 H       
  74 H74           -7.8263    -1.9935     2.8960 H       
  75 H75           -7.0092    -3.5746     2.8707 H       
  76 H76           -7.7700    -0.8247     5.4146 H       
  77 H77           -9.2018    -1.8965     5.3779 H       
  78 H78           -7.0156    -1.6988     7.4708 H       
  79 H79           -8.7558    -2.0878     7.6797 H       
  80 H80           -6.7724    -4.0418     7.6260 H       
  81 H81           -8.4491    -4.3445     7.0722 H       
@<TRIPOS>BOND
   1    1    2 ar
   2    1   11 1
   3    1    6 ar
   4    2    3 ar
   5    2   42 1
   6    3    4 ar
   7    3   43 1
   8    4    5 ar
   9    4   24 1
  10    5    6 ar
  11    5   44 1
  12    6    7 1
  13    7    8 am
  14    7   45 1
  15    8    9 1
  16    8   10 2
  17    9   26 1
  18    9   27 2
  19   11   12 1
  20   11   13 1
  21   12   16 1
  22   12   46 1
  23   12   47 1
  24   13   14 1
  25   13   48 1
  26   13   49 1
  27   14   15 1
  28   14   50 1
  29   14   51 1
  30   15   16 1
  31   15   17 1
  32   16   52 1
  33   16   53 1
  34   17   18 ar
  35   17   19 ar
  36   18   23 1
  37   18   22 ar
  38   19   20 ar
  39   19   54 1
  40   20   21 ar
  41   20   55 1
  42   21   22 ar
  43   21   56 1
  44   22   57 1
  45   23   58 1
  46   23   59 1
  47   23   60 1
  48   24   25 1
  49   24   61 1
  50   24   62 1
  51   25   33 1
  52   25   63 1
  53   26   29 2
  54   27   28 1
  55   27   64 1
  56   28   29 1
  57   29   30 1
  58   30   31 1
  59   30   32 1
  60   30   65 1
  61   31   32 1
  62   31   66 1
  63   31   67 1
  64   32   68 1
  65   32   69 1
  66   33   34 1
  67   33   70 1
  68   33   71 1
  69   34   35 1
  70   34   72 1
  71   34   73 1
  72   35   36 1
  73   35   74 1
  74   35   75 1
  75   36   37 1
  76   36   40 am
  77   37   38 1
  78   37   76 1
  79   37   77 1
  80   38   39 1
  81   38   78 1
  82   38   79 1
  83   39   40 1
  84   39   80 1
  85   39   81 1
  86   40   41 2

#	End of record

