#	Name: ASD03090016
#	Creating user name:	WinNT
#	Creation time:	15. 06. 2019 20:28

#	Modifying user name:	WinNT
#	Modification time:	15. 06. 2019 20:28

#	Program:	/corina/corina34_cracker 3.40 0067  02.08.2006

@<TRIPOS>MOLECULE
ASD03090016
  38   41    0    0    0
SMALL
NO_CHARGES


@<TRIPOS>ATOM
   1 C1             0.1319     1.2106     0.5016 C.ar    
   2 C2             0.0562    -0.0386    -0.0910 C.ar    
   3 C3             1.1639    -0.5740    -0.7267 C.ar    
   4 C4             2.3467     0.1375    -0.7714 C.ar    
   5 C5             2.4248     1.3909    -0.1781 C.ar    
   6 C6             1.3128     1.9256     0.4594 C.ar    
   7 N7             3.6220     2.1132    -0.2217 N.pl3   
   8 C8             3.5949     3.4906    -0.2574 C.2     
   9 N9             2.5139     4.2092    -0.3735 N.2     
  10 C10            2.6567     5.5086    -0.3918 C.2     
  11 C11            3.9570     5.9276    -0.2833 C.2     
  12 S12            4.9736     4.4949    -0.1484 S.3     
  13 C13            4.4037     7.2733    -0.2757 C.2     
  14 C14            5.8242     7.5785    -0.0089 C.ar    
  15 O15            3.6160     8.1778    -0.4892 O.2     
  16 C16            1.4955     6.4604    -0.5213 C.3     
  17 F17           -1.0999    -0.7364    -0.0485 F       
  18 C18            6.4000     8.7405    -0.5275 C.ar    
  19 C19            7.7254     9.0237    -0.2777 C.ar    
  20 C20            8.4923     8.1573     0.4892 C.ar    
  21 C21            7.9226     6.9946     1.0109 C.ar    
  22 C22            6.5938     6.7082     0.7678 C.ar    
  23 O23            9.8003     8.2098     0.8718 O.3     
  24 C24            9.9186     7.2846     1.9685 C.3     
  25 O25            8.8767     6.3225     1.7195 O.3     
  26 H26           -0.7343     1.6280     0.9932 H       
  27 H27            1.1028    -1.5488    -1.1876 H       
  28 H28            3.2104    -0.2805    -1.2670 H       
  29 H29            1.3712     2.9002     0.9211 H       
  30 H30            4.4713     1.6445    -0.2268 H       
  31 H31            1.1221     6.7149     0.4706 H       
  32 H32            1.8238     7.3670    -1.0296 H       
  33 H33            0.7009     5.9876    -1.0984 H       
  34 H34            5.8065     9.4170    -1.1247 H       
  35 H35            8.1689     9.9224    -0.6802 H       
  36 H36            6.1519     5.8089     1.1708 H       
  37 H37           10.8958     6.8020     1.9585 H       
  38 H38            9.7512     7.7930     2.9181 H       
@<TRIPOS>BOND
   1    1    2 ar
   2    1    6 ar
   3    1   26 1
   4    2    3 ar
   5    2   17 1
   6    3    4 ar
   7    3   27 1
   8    4    5 ar
   9    4   28 1
  10    5    6 ar
  11    5    7 1
  12    6   29 1
  13    7    8 1
  14    7   30 1
  15    8    9 2
  16    8   12 1
  17    9   10 1
  18   10   11 2
  19   10   16 1
  20   11   12 1
  21   11   13 1
  22   13   14 1
  23   13   15 2
  24   14   18 ar
  25   14   22 ar
  26   16   31 1
  27   16   32 1
  28   16   33 1
  29   18   19 ar
  30   18   34 1
  31   19   20 ar
  32   19   35 1
  33   20   21 ar
  34   20   23 1
  35   21   22 ar
  36   21   25 1
  37   22   36 1
  38   23   24 1
  39   24   25 1
  40   24   37 1
  41   24   38 1

#	End of record

