#	Name: ASD01870687
#	Creating user name:	WinNT
#	Creation time:	15. 06. 2019 19:39

#	Modifying user name:	WinNT
#	Modification time:	15. 06. 2019 19:39

#	Program:	/corina/corina34_cracker 3.40 0067  02.08.2006

@<TRIPOS>MOLECULE
ASD01870687
  43   46    0    0    0
SMALL
NO_CHARGES


@<TRIPOS>ATOM
   1 N1            -0.0056     1.2918     0.2632 N.2     
   2 C2            -0.0036     0.0190    -0.0412 C.2     
   3 C3             1.3247    -0.3797    -0.2072 C.2     
   4 C4             2.0802     0.7566     0.0243 C.2     
   5 N5             1.1918     1.7541     0.3100 N.pl3   
   6 C6             3.5467     0.8677    -0.0267 C.2     
   7 N7             4.1276     2.0797    -0.1275 N.am    
   8 O8             4.2346    -0.1342     0.0221 O.2     
   9 C9             6.1130     2.7406    -1.3838 C.3     
  10 C10            5.5881     2.2307    -0.0395 C.3     
  11 C11            3.3214     3.2927    -0.3353 C.3     
  12 C12            5.2474     3.8894    -1.8542 C.2     
  13 C13            5.6581     4.8533    -2.8606 C.2     
  14 C14            4.0135     4.1298    -1.3960 C.2     
  15 S15            3.3142     5.5334    -2.1844 S.3     
  16 C16            4.7046     5.7947    -3.1316 C.2     
  17 C17            6.9344     4.8175    -3.5091 C.1     
  18 N18            7.9468     4.7891    -4.0235 N.1     
  19 N19            4.8500     6.8201    -4.0496 N.pl3   
  20 C20            3.7593     7.7753    -4.2596 C.3     
  21 C21            4.1683     8.7836    -5.3022 C.ar    
  22 C22            4.8120     9.9469    -4.9237 C.ar    
  23 C23            3.9050     8.5426    -6.6377 C.ar    
  24 C24            4.2802     9.4675    -7.5941 C.ar    
  25 C25            4.9183    10.6337    -7.2149 C.ar    
  26 C26            5.1872    10.8718    -5.8800 C.ar    
  27 H27           -0.8745    -0.6112    -0.1453 H       
  28 H28            1.6855    -1.3654    -0.4615 H       
  29 H29            1.4291     2.6717     0.5168 H       
  30 H30            7.1402     3.0859    -1.2665 H       
  31 H31            6.0800     1.9348    -2.1171 H       
  32 H32            5.8347     2.9467     0.7444 H       
  33 H33            6.0421     1.2662     0.1879 H       
  34 H34            2.3223     3.0189    -0.6743 H       
  35 H35            3.2552     3.8564     0.5953 H       
  36 H36            5.6741     6.9064    -4.5539 H       
  37 H37            2.8703     7.2430    -4.5980 H       
  38 H38            3.5408     8.2890    -3.3234 H       
  39 H39            5.0213    10.1334    -3.8807 H       
  40 H40            3.4064     7.6315    -6.9339 H       
  41 H41            4.0751     9.2789    -8.6375 H       
  42 H42            5.2118    11.3561    -7.9621 H       
  43 H43            5.6897    11.7809    -5.5843 H       
@<TRIPOS>BOND
   1    1    2 2
   2    1    5 1
   3    2    3 1
   4    2   27 1
   5    3    4 2
   6    3   28 1
   7    4    5 1
   8    4    6 1
   9    5   29 1
  10    6    7 am
  11    6    8 2
  12    7   11 1
  13    7   10 1
  14    9   10 1
  15    9   12 1
  16    9   30 1
  17    9   31 1
  18   10   32 1
  19   10   33 1
  20   11   14 1
  21   11   34 1
  22   11   35 1
  23   12   14 2
  24   12   13 1
  25   13   16 2
  26   13   17 1
  27   14   15 1
  28   15   16 1
  29   16   19 1
  30   17   18 3
  31   19   20 1
  32   19   36 1
  33   20   21 1
  34   20   37 1
  35   20   38 1
  36   21   23 ar
  37   21   22 ar
  38   22   26 ar
  39   22   39 1
  40   23   24 ar
  41   23   40 1
  42   24   25 ar
  43   24   41 1
  44   25   26 ar
  45   25   42 1
  46   26   43 1

#	End of record

