#	Name: ASD07480035
#	Creating user name:	WinNT
#	Creation time:	15. 06. 2019 21:11

#	Modifying user name:	WinNT
#	Modification time:	15. 06. 2019 21:11

#	Program:	/corina/corina34_cracker 3.40 0067  02.08.2006

@<TRIPOS>MOLECULE
ASD07480035
  50   54    0    0    0
SMALL
NO_CHARGES


@<TRIPOS>ATOM
   1 C1            -0.0171     1.4055    -0.0382 C.2     
   2 C2             0.0020    -0.0036    -0.0534 C.2     
   3 C3             1.1835    -0.6680    -0.0534 C.2     
   4 N4             2.3659     0.0191    -0.0387 N.pl3   
   5 C5             2.3743     1.3901    -0.0238 C.2     
   6 C6             1.1548     2.0952    -0.0236 C.2     
   7 C7             3.6782    -0.3904    -0.0351 C.2     
   8 C8             4.4454     0.7391    -0.0182 C.2     
   9 N9             3.6378     1.7978    -0.0117 N.2     
  10 N10           -1.2028    -0.7193    -0.0680 N.pl3   
  11 C11           -2.5496    -0.1297    -0.0753 C.3     
  12 C12           -2.7386     0.7014    -1.3181 C.ar    
  13 C13           -1.9945     0.4303    -2.4502 C.ar    
  14 C14           -2.1681     1.1939    -3.5922 C.ar    
  15 C15           -3.0872     2.2290    -3.5995 C.ar    
  16 C16           -3.8316     2.5002    -2.4671 C.ar    
  17 C17           -3.6621     1.7331    -1.3273 C.ar    
  18 F18           -1.4401     0.9291    -4.6990 F       
  19 C19            4.1656    -1.7864    -0.0468 C.2     
  20 C20            3.3455    -2.8512     0.0538 C.2     
  21 C21           -1.3296    -2.1880    -0.0852 C.3     
  22 C22           -2.7290    -2.4722     0.5153 C.3     
  23 C23           -3.5604    -1.2958    -0.0650 C.3     
  24 F24           -4.3901     1.9979    -0.2204 F       
  25 N25            5.4562    -2.1049    -0.1636 N.2     
  26 C26            5.7486    -3.3644    -0.1599 C.2     
  27 S27            4.3331    -4.3084    -0.0024 S.3     
  28 O28            7.0029    -3.8660    -0.2692 O.3     
  29 C29            8.6142    -5.6637    -0.3802 C.3     
  30 C30            7.1370    -5.2885    -0.2459 C.3     
  31 H31           -0.9583     1.9353    -0.0427 H       
  32 H32            1.1912    -1.7479    -0.0647 H       
  33 H33            1.1506     3.1751    -0.0123 H       
  34 H34            5.5250     0.7688    -0.0106 H       
  35 H35           -2.6873     0.4911     0.8101 H       
  36 H36           -1.2771    -0.3770    -2.4443 H       
  37 H37           -3.2224     2.8248    -4.4901 H       
  38 H38           -4.5485     3.3079    -2.4727 H       
  39 H39            2.2705    -2.8169     0.1521 H       
  40 H40           -1.2724    -2.5618    -1.1075 H       
  41 H41           -0.5533    -2.6430     0.5300 H       
  42 H42           -3.1155    -3.4307     0.1688 H       
  43 H43           -2.7020    -2.4343     1.6043 H       
  44 H44           -4.4076    -1.0667     0.5814 H       
  45 H45           -3.8962    -1.5231    -1.0767 H       
  46 H46            9.0030    -5.2775    -1.3224 H       
  47 H47            9.1755    -5.2322     0.4486 H       
  48 H48            8.7165    -6.7487    -0.3624 H       
  49 H49            6.7482    -5.6747     0.6963 H       
  50 H50            6.5758    -5.7199    -1.0747 H       
@<TRIPOS>BOND
   1    1    2 1
   2    1    6 2
   3    1   31 1
   4    2    3 2
   5    2   10 1
   6    3    4 1
   7    3   32 1
   8    4    5 1
   9    4    7 1
  10    5    6 1
  11    5    9 2
  12    6   33 1
  13    7    8 2
  14    7   19 1
  15    8    9 1
  16    8   34 1
  17   10   21 1
  18   10   11 1
  19   11   12 1
  20   11   23 1
  21   11   35 1
  22   12   13 ar
  23   12   17 ar
  24   13   14 ar
  25   13   36 1
  26   14   15 ar
  27   14   18 1
  28   15   16 ar
  29   15   37 1
  30   16   17 ar
  31   16   38 1
  32   17   24 1
  33   19   25 1
  34   19   20 2
  35   20   27 1
  36   20   39 1
  37   21   22 1
  38   21   40 1
  39   21   41 1
  40   22   23 1
  41   22   42 1
  42   22   43 1
  43   23   44 1
  44   23   45 1
  45   25   26 2
  46   26   27 1
  47   26   28 1
  48   28   30 1
  49   29   30 1
  50   29   46 1
  51   29   47 1
  52   29   48 1
  53   30   49 1
  54   30   50 1

#	End of record

