#	Name: ASD01150084
#	Creating user name:	WinNT
#	Creation time:	15. 06. 2019 19:03

#	Modifying user name:	WinNT
#	Modification time:	15. 06. 2019 19:03

#	Program:	/corina/corina34_cracker 3.40 0067  02.08.2006

@<TRIPOS>MOLECULE
ASD01150084
  31   32    0    0    0
SMALL
NO_CHARGES


@<TRIPOS>ATOM
   1 C1            -0.0168     1.3860     0.0097 C.2     
   2 C2             0.0021    -0.0041     0.0020 C.2     
   3 C3            -1.1107    -0.8676     0.0076 C.2     
   4 N4             1.2511     1.8096    -0.0002 N.2     
   5 C5             2.0700     0.7816    -0.0135 C.2     
   6 N6             1.3505    -0.3693    -0.0128 N.pl3   
   7 O7            -2.2383    -0.4076     0.0209 O.2     
   8 C8             1.8623    -1.6744    -0.0238 C.ar    
   9 O9             3.4194     0.8586    -0.0260 O.3     
  10 C10            3.9946     2.1668    -0.0239 C.3     
  11 C11            2.5990    -2.1412     1.0564 C.ar    
  12 C12            3.1020    -3.4274     1.0439 C.ar    
  13 C13            2.8723    -4.2511    -0.0453 C.ar    
  14 C14            2.1381    -3.7871    -1.1239 C.ar    
  15 C15            1.6282    -2.5036    -1.1125 C.ar    
  16 F16            3.3655    -5.5088    -0.0559 F       
  17 O17           -0.9272    -2.2055    -0.0018 O.3     
  18 C18           -2.1005    -3.0213     0.0046 C.3     
  19 N19           -1.1470     2.1885     0.0196 N.pl3   
  20 H20            3.6620     2.7113    -0.9076 H       
  21 H21            3.6790     2.7010     0.8723 H       
  22 H22            5.0815     2.0858    -0.0348 H       
  23 H23            2.7789    -1.4989     1.9058 H       
  24 H24            3.6751    -3.7909     1.8840 H       
  25 H25            1.9607    -4.4308    -1.9728 H       
  26 H26            1.0554    -2.1423    -1.9537 H       
  27 H27           -2.6837    -2.8119     0.9014 H       
  28 H28           -2.7005    -2.8018    -0.8785 H       
  29 H29           -1.8122    -4.0725    -0.0041 H       
  30 H30           -2.0288     1.7843     0.0217 H       
  31 H31           -1.0561     3.1542     0.0244 H       
@<TRIPOS>BOND
   1    1    2 2
   2    1    4 1
   3    1   19 1
   4    2    3 1
   5    2    6 1
   6    3    7 2
   7    3   17 1
   8    4    5 2
   9    5    6 1
  10    5    9 1
  11    6    8 1
  12    8   11 ar
  13    8   15 ar
  14    9   10 1
  15   10   20 1
  16   10   21 1
  17   10   22 1
  18   11   12 ar
  19   11   23 1
  20   12   13 ar
  21   12   24 1
  22   13   14 ar
  23   13   16 1
  24   14   15 ar
  25   14   25 1
  26   15   26 1
  27   17   18 1
  28   18   27 1
  29   18   28 1
  30   18   29 1
  31   19   30 1
  32   19   31 1

#	End of record

