#	Name: ASD04880415
#	Creating user name:	WinNT
#	Creation time:	15. 06. 2019 20:53

#	Modifying user name:	WinNT
#	Modification time:	15. 06. 2019 20:53

#	Program:	/corina/corina34_cracker 3.40 0067  02.08.2006

@<TRIPOS>MOLECULE
ASD04880415
  37   39    0    0    0
SMALL
NO_CHARGES


@<TRIPOS>ATOM
   1 C1            -0.0357     1.0096     0.1957 C.ar    
   2 C2             0.8779     1.2721     1.1953 C.ar    
   3 C3             2.1434     0.6870     1.1548 C.ar    
   4 C4             2.4783    -0.1714     0.0879 C.ar    
   5 C5             1.5384    -0.4237    -0.9131 C.ar    
   6 C6             0.2931     0.1658    -0.8535 C.ar    
   7 C7             3.1248     0.9649     2.2209 C.2     
   8 O8             4.1812     0.3634     2.2466 O.2     
   9 N9             2.8504     1.8856     3.1661 N.am    
  10 C10            3.8094    -0.7967     0.0294 C.2     
  11 N11            4.0448    -2.0589     0.1503 N.2     
  12 N12            5.3931    -2.3975     0.0570 N.am    
  13 C13            6.1779    -1.1717    -0.1597 C.3     
  14 C14            5.1113    -0.0592    -0.1883 C.3     
  15 C15            5.8965    -3.6443     0.1499 C.2     
  16 C16            5.0073    -4.7773     0.4811 C.ar    
  17 O17            7.0820    -3.8369    -0.0388 O.2     
  18 C18            5.5425    -6.0478     0.6980 C.ar    
  19 C19            4.7051    -7.1027     1.0078 C.ar    
  20 C20            3.3378    -6.8996     1.1030 C.ar    
  21 C21            2.8029    -5.6418     0.8883 C.ar    
  22 C22            3.6289    -4.5798     0.5841 C.ar    
  23 F23            5.2204    -8.3338     1.2178 F       
  24 H24           -1.0159     1.4615     0.2332 H       
  25 H25            0.6133     1.9309     2.0092 H       
  26 H26            1.7867    -1.0797    -1.7343 H       
  27 H27           -0.4314    -0.0321    -1.6296 H       
  28 H28            2.0077     2.3655     3.1456 H       
  29 H29            3.4957     2.0684     3.8670 H       
  30 H30            6.8787    -1.0150     0.6604 H       
  31 H31            6.7051    -1.2173    -1.1126 H       
  32 H32            5.1130     0.4474    -1.1534 H       
  33 H33            5.2804     0.6535     0.6190 H       
  34 H34            6.6082    -6.2064     0.6235 H       
  35 H35            2.6869    -7.7266     1.3453 H       
  36 H36            1.7363    -5.4903     0.9633 H       
  37 H37            3.2092    -3.5988     0.4170 H       
@<TRIPOS>BOND
   1    1    2 ar
   2    1    6 ar
   3    1   24 1
   4    2    3 ar
   5    2   25 1
   6    3    4 ar
   7    3    7 1
   8    4    5 ar
   9    4   10 1
  10    5    6 ar
  11    5   26 1
  12    6   27 1
  13    7    8 2
  14    7    9 am
  15    9   28 1
  16    9   29 1
  17   10   11 2
  18   10   14 1
  19   11   12 1
  20   12   13 1
  21   12   15 am
  22   13   14 1
  23   13   30 1
  24   13   31 1
  25   14   32 1
  26   14   33 1
  27   15   16 1
  28   15   17 2
  29   16   18 ar
  30   16   22 ar
  31   18   19 ar
  32   18   34 1
  33   19   20 ar
  34   19   23 1
  35   20   21 ar
  36   20   35 1
  37   21   22 ar
  38   21   36 1
  39   22   37 1

#	End of record

