#	Name: ASD01810159
#	Creating user name:	WinNT
#	Creation time:	15. 06. 2019 19:23

#	Modifying user name:	WinNT
#	Modification time:	15. 06. 2019 19:23

#	Program:	/corina/corina34_cracker 3.40 0067  02.08.2006

@<TRIPOS>MOLECULE
ASD01810159
  38   40    0    0    0
SMALL
NO_CHARGES


@<TRIPOS>ATOM
   1 C1            -0.0738     1.3171     0.1646 C.ar    
   2 C2            -0.0307    -0.0686     0.1531 C.ar    
   3 C3             1.1753    -0.7363     0.0881 C.ar    
   4 C4             2.3678    -0.0172     0.0327 C.ar    
   5 C5             2.3225     1.3874     0.0439 C.ar    
   6 C6             1.0945     2.0504     0.1104 C.ar    
   7 N7             3.5791    -0.6732    -0.0315 N.pl3   
   8 C8             4.7513    -0.0283    -0.0854 C.2     
   9 C9             4.8334     1.3496    -0.0803 C.2     
  10 C10            3.5906     2.1359    -0.0152 C.2     
  11 O11            3.6096     3.3544    -0.0085 O.2     
  12 C12            6.1396     2.0204    -0.1397 C.2     
  13 O13            6.2067     3.3668    -0.1340 O.3     
  14 O14            7.1595     1.3611    -0.1939 O.2     
  15 C15            3.5837    -2.1382    -0.0406 C.3     
  16 C16            3.7124    -2.6489     1.3714 C.ar    
  17 C17            2.5875    -2.7677     2.1676 C.ar    
  18 C18            2.6971    -3.2353     3.4654 C.ar    
  19 C19            3.9305    -3.5867     3.9733 C.ar    
  20 C20            5.0696    -3.4697     3.1749 C.ar    
  21 C21            4.9514    -3.0023     1.8653 C.ar    
  22 F22            1.2000    -2.0871     0.0787 F       
  23 C23            6.3949    -3.8441     3.7129 C.2     
  24 N24            6.5051    -4.2994     4.9766 N.am    
  25 O25            7.3851    -3.7411     3.0154 O.2     
  26 F26            1.0507     3.4007     0.1208 F       
  27 H27           -1.0258     1.8251     0.2116 H       
  28 H28           -0.9512    -0.6318     0.1958 H       
  29 H29            5.6629    -0.6053    -0.1342 H       
  30 H30            7.0881     3.7625    -0.1744 H       
  31 H31            2.6524    -2.5017    -0.4749 H       
  32 H32            4.4252    -2.4953    -0.6343 H       
  33 H33            1.6194    -2.4939     1.7748 H       
  34 H34            1.8150    -3.3251     4.0821 H       
  35 H35            4.0147    -3.9513     4.9864 H       
  36 H36            5.8288    -2.9098     1.2424 H       
  37 H37            5.7149    -4.3816     5.5331 H       
  38 H38            7.3746    -4.5450     5.3295 H       
@<TRIPOS>BOND
   1    1    2 ar
   2    1    6 ar
   3    1   27 1
   4    2    3 ar
   5    2   28 1
   6    3    4 ar
   7    3   22 1
   8    4    5 ar
   9    4    7 1
  10    5    6 ar
  11    5   10 1
  12    6   26 1
  13    7    8 1
  14    7   15 1
  15    8    9 2
  16    8   29 1
  17    9   10 1
  18    9   12 1
  19   10   11 2
  20   12   13 1
  21   12   14 2
  22   13   30 1
  23   15   16 1
  24   15   31 1
  25   15   32 1
  26   16   17 ar
  27   16   21 ar
  28   17   18 ar
  29   17   33 1
  30   18   19 ar
  31   18   34 1
  32   19   20 ar
  33   19   35 1
  34   20   21 ar
  35   20   23 1
  36   21   36 1
  37   23   24 am
  38   23   25 2
  39   24   37 1
  40   24   38 1

#	End of record

