#	Name: ASD06660149
#	Creating user name:	WinNT
#	Creation time:	15. 06. 2019 21:08

#	Modifying user name:	WinNT
#	Modification time:	15. 06. 2019 21:08

#	Program:	/corina/corina34_cracker 3.40 0067  02.08.2006

@<TRIPOS>MOLECULE
ASD06660149
  67   70    0    0    0
SMALL
NO_CHARGES


@<TRIPOS>ATOM
   1 C1            -0.0184     1.5028     0.0103 C.2     
   2 C2             0.0021    -0.0041     0.0020 C.3     
   3 C3            -0.7241    -0.5171    -1.2431 C.3     
   4 O4             1.0197     2.1211     0.0037 O.2     
   5 O5            -1.1898     2.1580     0.0194 O.3     
   6 N6             1.3897    -0.4735    -0.0138 N.am    
   7 C7             2.0717    -0.5994     1.1419 C.2     
   8 C8             3.4706    -1.0727     1.1260 C.ar    
   9 C9             3.7506    -2.4383     1.2213 C.ar    
  10 C10            5.0602    -2.8736     1.2059 C.ar    
  11 C11            6.0953    -1.9607     1.0962 C.ar    
  12 C12            5.8251    -0.6060     1.0019 C.ar    
  13 C13            4.5199    -0.1573     1.0098 C.ar    
  14 O14            1.5354    -0.3233     2.1974 O.2     
  15 Br15           4.1529     1.6926     0.8717 Br      
  16 Br16           7.8865    -2.5667     1.0760 Br      
  17 Br17           2.3385    -3.6871     1.3717 Br      
  18 C18           -0.8113    -2.0207    -1.1900 C.ar    
  19 C19           -1.8983    -2.6278    -0.5884 C.ar    
  20 C20           -1.9814    -4.0054    -0.5380 C.ar    
  21 C21           -0.9713    -4.7813    -1.0925 C.ar    
  22 C22            0.1192    -4.1682    -1.6960 C.ar    
  23 C23            0.1932    -2.7901    -1.7480 C.ar    
  24 N24           -1.0519    -6.1748    -1.0428 N.3     
  25 C25            0.1154    -6.7927    -1.6847 C.3     
  26 C26           -0.0755    -8.3100    -1.7414 C.3     
  27 C27           -0.2456    -8.8516    -0.3193 C.3     
  28 C28           -1.4383    -8.1570     0.3437 C.3     
  29 C29           -1.2079    -6.6440     0.3399 C.3     
  30 C30           -0.4975   -10.3598    -0.3732 C.3     
  31 N31           -0.5413   -10.8966     0.9892 N.pl3   
  32 C32           -0.7596   -12.2539     1.1947 C.ar    
  33 C33           -0.9358   -13.0971     0.1020 C.ar    
  34 C34           -1.1521   -14.4454     0.3210 C.ar    
  35 C35           -1.1853   -14.9073     1.6304 C.ar    
  36 C36           -1.0027   -14.0145     2.6670 C.ar    
  37 N37           -0.7927   -12.7337     2.4282 N.ar    
  38 C38           -1.3481   -15.3920    -0.8351 C.3     
  39 H39           -0.4983    -0.3791     0.8948 H       
  40 H40           -1.7288    -0.0959    -1.2772 H       
  41 H41           -0.1736    -0.2164    -2.1345 H       
  42 H42           -1.1523     3.1243     0.0245 H       
  43 H43            1.8177    -0.6938    -0.8559 H       
  44 H44            5.2781    -3.9288     1.2798 H       
  45 H45            6.6373     0.1008     0.9173 H       
  46 H46           -2.6831    -2.0240    -0.1572 H       
  47 H47           -2.8305    -4.4790    -0.0677 H       
  48 H48            0.9062    -4.7685    -2.1281 H       
  49 H49            1.0385    -2.3127    -2.2213 H       
  50 H50            0.2226    -6.4021    -2.6967 H       
  51 H51            1.0115    -6.5606    -1.1092 H       
  52 H52           -0.9638    -8.5434    -2.3284 H       
  53 H53            0.7981    -8.7697    -2.2037 H       
  54 H54            0.6581    -8.6527     0.2568 H       
  55 H55           -2.3480    -8.3879    -0.2105 H       
  56 H56           -1.5385    -8.5072     1.3710 H       
  57 H57           -0.3056    -6.4127     0.9059 H       
  58 H58           -2.0619    -6.1455     0.7984 H       
  59 H59           -1.4485   -10.5517    -0.8701 H       
  60 H60            0.3065   -10.8428    -0.9284 H       
  61 H61           -0.4180   -10.3049     1.7478 H       
  62 H62           -0.9043   -12.7040    -0.9034 H       
  63 H63           -1.3525   -15.9544     1.8353 H       
  64 H64           -1.0277   -14.3695     3.6867 H       
  65 H65           -0.3820   -15.7884    -1.1479 H       
  66 H66           -1.9951   -16.2132    -0.5267 H       
  67 H67           -1.8087   -14.8592    -1.6669 H       
@<TRIPOS>BOND
   1    1    2 1
   2    1    4 2
   3    1    5 1
   4    2    3 1
   5    2    6 1
   6    2   39 1
   7    3   18 1
   8    3   40 1
   9    3   41 1
  10    5   42 1
  11    6    7 am
  12    6   43 1
  13    7    8 1
  14    7   14 2
  15    8    9 ar
  16    8   13 ar
  17    9   10 ar
  18    9   17 1
  19   10   11 ar
  20   10   44 1
  21   11   12 ar
  22   11   16 1
  23   12   13 ar
  24   12   45 1
  25   13   15 1
  26   18   19 ar
  27   18   23 ar
  28   19   20 ar
  29   19   46 1
  30   20   21 ar
  31   20   47 1
  32   21   22 ar
  33   21   24 1
  34   22   23 ar
  35   22   48 1
  36   23   49 1
  37   24   25 1
  38   24   29 1
  39   25   26 1
  40   25   50 1
  41   25   51 1
  42   26   27 1
  43   26   52 1
  44   26   53 1
  45   27   28 1
  46   27   30 1
  47   27   54 1
  48   28   29 1
  49   28   55 1
  50   28   56 1
  51   29   57 1
  52   29   58 1
  53   30   31 1
  54   30   59 1
  55   30   60 1
  56   31   32 1
  57   31   61 1
  58   32   33 ar
  59   32   37 ar
  60   33   34 ar
  61   33   62 1
  62   34   35 ar
  63   34   38 1
  64   35   36 ar
  65   35   63 1
  66   36   37 ar
  67   36   64 1
  68   38   65 1
  69   38   66 1
  70   38   67 1

#	End of record

