#	Name: ASD01420165
#	Creating user name:	WinNT
#	Creation time:	15. 06. 2019 19:20

#	Modifying user name:	WinNT
#	Modification time:	15. 06. 2019 19:20

#	Program:	/corina/corina34_cracker 3.40 0067  02.08.2006

@<TRIPOS>MOLECULE
ASD01420165
  62   65    0    0    0
SMALL
NO_CHARGES


@<TRIPOS>ATOM
   1 C1            -0.0287     2.7915    -1.1737 C.2     
   2 O2            -0.0312     1.6388    -0.7860 O.2     
   3 C3             1.3109     4.7643    -1.9698 C.3     
   4 N4             1.1397     3.4226    -1.4038 N.am    
   5 C5             2.4827     2.8987    -1.1358 C.3     
   6 C6             3.4776     3.9528    -1.5518 C.ar    
   7 C7             4.8602     3.9656    -1.5112 C.ar    
   8 C8             5.5584     5.0776    -1.9618 C.ar    
   9 C9             4.8645     6.1763    -2.4531 C.ar    
  10 C10            3.4851     6.1576    -2.4911 C.ar    
  11 C11            2.7906     5.0468    -2.0409 C.ar    
  12 N12            6.9545     5.0919    -1.9209 N.3     
  13 C13            7.4837     6.3594    -2.4435 C.3     
  14 C14            9.0081     6.3671    -2.3081 C.3     
  15 N15            9.5683     5.2235    -3.0416 N.3     
  16 C16            9.0391     3.9560    -2.5190 C.3     
  17 C17            7.5146     3.9483    -2.6544 C.3     
  18 C18           11.0366     5.2386    -2.9986 C.3     
  19 C19           11.5800     3.9873    -3.6913 C.3     
  20 O20           11.1880     3.9954    -5.0655 O.3     
  21 C21           -1.3029     3.4959    -1.3978 C.ar    
  22 C22           -2.3452     3.3805    -0.4654 C.ar    
  23 C23           -3.5389     4.0461    -0.6834 C.ar    
  24 C24           -3.7026     4.8237    -1.8205 C.ar    
  25 C25           -2.6700     4.9392    -2.7460 C.ar    
  26 C26           -1.4766     4.2870    -2.5375 C.ar    
  27 C27           -2.8574     5.7863    -3.9781 C.3     
  28 C28           -1.8110     6.9025    -3.9936 C.3     
  29 C29           -2.6929     4.9157    -5.2255 C.3     
  30 O30           -4.8749     5.4742    -2.0314 O.3     
  31 O31           -2.1836     2.6188     0.6455 O.3     
  32 H32            0.8793     4.8011    -2.9701 H       
  33 H33            0.8247     5.5002    -1.3295 H       
  34 H34            2.5914     2.6876    -0.0719 H       
  35 H35            2.6461     1.9884    -1.7126 H       
  36 H36            5.3967     3.1101    -1.1284 H       
  37 H37            5.4036     7.0437    -2.8044 H       
  38 H38            2.9454     7.0117    -2.8727 H       
  39 H39            7.2114     6.4616    -3.4940 H       
  40 H40            7.0640     7.1901    -1.8762 H       
  41 H41            9.4053     7.2942    -2.7216 H       
  42 H42            9.2801     6.2923    -1.2552 H       
  43 H43            9.4588     3.1253    -3.0863 H       
  44 H44            9.3114     3.8539    -1.4685 H       
  45 H45            7.1175     3.0213    -2.2409 H       
  46 H46            7.2427     4.0231    -3.7073 H       
  47 H47           11.4060     6.1269    -3.5109 H       
  48 H48           11.3695     5.2529    -1.9608 H       
  49 H49           12.6679     3.9781    -3.6239 H       
  50 H50           11.1782     3.0989    -3.2042 H       
  51 H51           11.4986     3.2296    -5.5676 H       
  52 H52           -4.3435     3.9597     0.0318 H       
  53 H53           -0.6759     4.3827    -3.2559 H       
  54 H54           -3.8555     6.2242    -3.9697 H       
  55 H55           -0.8128     6.4647    -4.0021 H       
  56 H56           -1.9465     7.5152    -4.8849 H       
  57 H57           -1.9282     7.5227    -3.1050 H       
  58 H58           -1.6947     4.4779    -5.2339 H       
  59 H59           -3.4383     4.1205    -5.2144 H       
  60 H60           -2.8284     5.5285    -6.1167 H       
  61 H61           -4.9031     6.3653    -1.6568 H       
  62 H62           -1.8245     3.1001     1.4035 H       
@<TRIPOS>BOND
   1    1    2 2
   2    1    4 am
   3    1   21 1
   4    3    4 1
   5    3   11 1
   6    3   32 1
   7    3   33 1
   8    4    5 1
   9    5    6 1
  10    5   34 1
  11    5   35 1
  12    6    7 ar
  13    6   11 ar
  14    7    8 ar
  15    7   36 1
  16    8    9 ar
  17    8   12 1
  18    9   10 ar
  19    9   37 1
  20   10   11 ar
  21   10   38 1
  22   12   13 1
  23   12   17 1
  24   13   14 1
  25   13   39 1
  26   13   40 1
  27   14   15 1
  28   14   41 1
  29   14   42 1
  30   15   16 1
  31   15   18 1
  32   16   17 1
  33   16   43 1
  34   16   44 1
  35   17   45 1
  36   17   46 1
  37   18   19 1
  38   18   47 1
  39   18   48 1
  40   19   20 1
  41   19   49 1
  42   19   50 1
  43   20   51 1
  44   21   22 ar
  45   21   26 ar
  46   22   23 ar
  47   22   31 1
  48   23   24 ar
  49   23   52 1
  50   24   25 ar
  51   24   30 1
  52   25   26 ar
  53   25   27 1
  54   26   53 1
  55   27   28 1
  56   27   29 1
  57   27   54 1
  58   28   55 1
  59   28   56 1
  60   28   57 1
  61   29   58 1
  62   29   59 1
  63   29   60 1
  64   30   61 1
  65   31   62 1

#	End of record

