#	Name: ASD01917232
#	Creating user name:	WinNT
#	Creation time:	15. 06. 2019 20:08

#	Modifying user name:	WinNT
#	Modification time:	15. 06. 2019 20:08

#	Program:	/corina/corina34_cracker 3.40 0067  02.08.2006

@<TRIPOS>MOLECULE
ASD01917232
  66   66    0    0    0
SMALL
NO_CHARGES


@<TRIPOS>ATOM
   1 N1            -0.0169     1.3961     0.0097 N.2     
   2 N2             0.0021    -0.0041     0.0020 N.pl3   
   3 C3             1.3093    -0.4042    -0.0126 C.2     
   4 C4             2.0839     0.7387    -0.0139 C.2     
   5 C5             1.2196     1.8356     0.0003 C.2     
   6 C6             1.7982    -1.7906    -0.0240 C.2     
   7 O7             2.9931    -2.0136    -0.0367 O.2     
   8 O8             0.9214    -2.8147    -0.0204 O.3     
   9 O9             1.5968     3.1422     0.0033 O.3     
  10 Si10           1.7954     3.7719     1.4947 Si      
  11 C11            0.1906     3.6608     2.4344 C.3     
  12 C12            3.1134     2.8173     2.4013 C.3     
  13 C13            2.3090     5.5570     1.3517 C.3     
  14 C14            1.2265     6.3411     0.6070 C.3     
  15 C15            2.4953     6.1478     2.7507 C.3     
  16 C16            3.6269     5.6483     0.5799 C.3     
  17 C17            1.4752    -4.1568    -0.0322 C.3     
  18 C18            0.3364    -5.1786    -0.0260 C.3     
  19 C19           -1.1697    -0.8833     0.0085 C.3     
  20 C20           -1.5911    -1.1821    -1.4317 C.3     
  21 C21           -2.7353    -2.1978    -1.4280 C.3     
  22 N22           -2.0384     0.0551    -2.0763 N.am    
  23 O23           -2.3891     1.3131    -4.0097 O.3     
  24 C24           -2.2954     1.3732    -5.4575 C.3     
  25 C25           -3.1467     0.2594    -6.0703 C.3     
  26 C26           -2.8042     2.7311    -5.9455 C.3     
  27 C27           -0.8367     1.1925    -5.8821 C.3     
  28 C28           -1.9780     0.1761    -3.4173 C.2     
  29 O29           -1.5527    -0.7409    -4.0916 O.2     
  30 H30            3.1632     0.7774    -0.0237 H       
  31 H31           -0.1098     2.6164     2.5181 H       
  32 H32            0.3234     4.0816     3.4311 H       
  33 H33           -0.5805     4.2194     1.9040 H       
  34 H34            4.0523     2.8823     1.8515 H       
  35 H35            3.2462     3.2381     3.3980 H       
  36 H36            2.8130     1.7728     2.4850 H       
  37 H37            0.2876     6.2761     1.1569 H       
  38 H38            1.5270     7.3855     0.5234 H       
  39 H39            1.0938     5.9203    -0.3896 H       
  40 H40            3.2665     5.5892     3.2812 H       
  41 H41            2.7958     7.1922     2.6670 H       
  42 H42            1.5564     6.0827     3.3005 H       
  43 H43            3.4941     5.2275    -0.4168 H       
  44 H44            3.9274     6.6927     0.4962 H       
  45 H45            4.3980     5.0898     1.1104 H       
  46 H46            2.0801    -4.2924    -0.9287 H       
  47 H47            2.0974    -4.3009     0.8511 H       
  48 H48           -0.2685    -5.0430     0.8706 H       
  49 H49           -0.2858    -5.0345    -0.9093 H       
  50 H50            0.7522    -6.1861    -0.0348 H       
  51 H51           -0.9215    -1.8158     0.5154 H       
  52 H52           -1.9897    -0.3920     0.5324 H       
  53 H53           -0.7433    -1.5919    -1.9807 H       
  54 H54           -3.5831    -1.7880    -0.8790 H       
  55 H55           -3.0355    -2.4107    -2.4540 H       
  56 H56           -2.4026    -3.1183    -0.9484 H       
  57 H57           -2.3779     0.7871    -1.5381 H       
  58 H58           -4.1860     0.3881    -5.7677 H       
  59 H59           -3.0764     0.3045    -7.1571 H       
  60 H60           -2.7842    -0.7080    -5.7226 H       
  61 H61           -2.1978     3.5246    -5.5089 H       
  62 H62           -2.7339     2.7762    -7.0323 H       
  63 H63           -3.8435     2.8598    -5.6430 H       
  64 H64           -0.4742     0.2252    -5.5344 H       
  65 H65           -0.7664     1.2376    -6.9689 H       
  66 H66           -0.2302     1.9861    -5.4455 H       
@<TRIPOS>BOND
   1    1    2 1
   2    1    5 2
   3    2    3 1
   4    2   19 1
   5    3    4 2
   6    3    6 1
   7    4    5 1
   8    4   30 1
   9    5    9 1
  10    6    7 2
  11    6    8 1
  12    8   17 1
  13    9   10 1
  14   10   11 1
  15   10   12 1
  16   10   13 1
  17   11   31 1
  18   11   32 1
  19   11   33 1
  20   12   34 1
  21   12   35 1
  22   12   36 1
  23   13   14 1
  24   13   16 1
  25   13   15 1
  26   14   37 1
  27   14   38 1
  28   14   39 1
  29   15   40 1
  30   15   41 1
  31   15   42 1
  32   16   43 1
  33   16   44 1
  34   16   45 1
  35   17   18 1
  36   17   46 1
  37   17   47 1
  38   18   48 1
  39   18   49 1
  40   18   50 1
  41   19   20 1
  42   19   51 1
  43   19   52 1
  44   20   21 1
  45   20   22 1
  46   20   53 1
  47   21   54 1
  48   21   55 1
  49   21   56 1
  50   22   28 am
  51   22   57 1
  52   23   24 1
  53   23   28 1
  54   24   25 1
  55   24   26 1
  56   24   27 1
  57   25   58 1
  58   25   59 1
  59   25   60 1
  60   26   61 1
  61   26   62 1
  62   26   63 1
  63   27   64 1
  64   27   65 1
  65   27   66 1
  66   28   29 2

#	End of record

