#	Name: ASD03240142
#	Creating user name:	WinNT
#	Creation time:	15. 06. 2019 20:34

#	Modifying user name:	WinNT
#	Modification time:	15. 06. 2019 20:34

#	Program:	/corina/corina34_cracker 3.40 0067  02.08.2006

@<TRIPOS>MOLECULE
ASD03240142
  71   77    0    0    0
SMALL
NO_CHARGES


@<TRIPOS>ATOM
   1 C1            -0.0169     1.3931     0.0097 C.ar    
   2 C2             0.0021    -0.0041     0.0020 C.ar    
   3 C3             1.1949     2.0921     0.0019 C.ar    
   4 C4             2.3791     1.3593    -0.0134 C.ar    
   5 C5             2.3111    -0.0443    -0.0202 C.ar    
   6 N6             1.1390    -0.6653    -0.0120 N.ar    
   7 C7             3.5610    -0.8384    -0.0364 C.ar    
   8 C8             3.6914     2.0494    -0.0227 C.ar    
   9 C9             3.9409     3.0657    -0.9436 C.ar    
  10 C10            5.1642     3.7045    -0.9476 C.ar    
  11 C11            6.1418     3.3381    -0.0401 C.ar    
  12 C12            5.8999     2.3300     0.8758 C.ar    
  13 C13            4.6782     1.6884     0.8932 C.ar    
  14 C14            3.6287    -2.0517     0.6484 C.ar    
  15 C15            4.7959    -2.7873     0.6291 C.ar    
  16 C16            5.8976    -2.3237    -0.0675 C.ar    
  17 C17            5.8368    -1.1208    -0.7483 C.ar    
  18 C18            4.6735    -0.3789    -0.7413 C.ar    
  19 C19            7.1694    -3.1320    -0.0844 C.3     
  20 C20           -1.3012     2.1233     0.0198 C.2     
  21 N21            7.1452    -4.0590    -1.2237 N.3     
  22 C22            8.4561    -4.6927    -1.4144 C.3     
  23 C23            8.4354    -5.5365    -2.6910 C.3     
  24 C24            7.3439    -6.6039    -2.5739 C.3     
  25 C25            5.9964    -5.9198    -2.3275 C.3     
  26 C26            6.0878    -5.0649    -1.0614 C.3     
  27 C27            7.2785    -7.3997    -3.8520 C.2     
  28 N28            7.4724    -8.7107    -3.9534 N.2     
  29 C29            7.3421    -9.0848    -5.2098 C.2     
  30 N30            7.0557    -7.9839    -5.9415 N.pl3   
  31 N31            7.0161    -6.9104    -5.0368 N.2     
  32 C32            7.4843   -10.4638    -5.7283 C.ar    
  33 C33            7.7837   -11.5050    -4.8511 C.ar    
  34 C34            7.9136   -12.7895    -5.3512 C.ar    
  35 C35            7.7397   -12.9908    -6.7127 C.ar    
  36 C36            7.4438   -11.9113    -7.5263 C.ar    
  37 N37            7.3204   -10.7002    -7.0246 N.ar    
  38 S38           -2.9096     1.3972     0.0234 S.3     
  39 C39           -3.6061     3.0185     0.0362 C.2     
  40 N40           -2.6230     3.8752     0.0364 N.2     
  41 N41           -1.4477     3.4180     0.0332 N.2     
  42 N42           -4.9568     3.3264     0.0442 N.pl3   
  43 H43           -0.9304    -0.5489     0.0080 H       
  44 H44            1.2116     3.1720     0.0072 H       
  45 H45            3.1785     3.3523    -1.6529 H       
  46 H46            5.3588     4.4917    -1.6609 H       
  47 H47            7.0976     3.8407    -0.0469 H       
  48 H48            6.6670     2.0479     1.5818 H       
  49 H49            4.4905     0.9015     1.6088 H       
  50 H50            2.7694    -2.4144     1.1928 H       
  51 H51            4.8497    -3.7267     1.1592 H       
  52 H52            6.7003    -0.7640    -1.2900 H       
  53 H53            4.6271     0.5597    -1.2734 H       
  54 H54            8.0243    -2.4625    -0.1789 H       
  55 H55            7.2522    -3.6984     0.8432 H       
  56 H56            9.2227    -3.9226    -1.5005 H       
  57 H57            8.6782    -5.3321    -0.5601 H       
  58 H58            8.2271    -4.8954    -3.5476 H       
  59 H59            9.4037    -6.0192    -2.8239 H       
  60 H60            7.5726    -7.2688    -1.7410 H       
  61 H61            5.7497    -5.2848    -3.1783 H       
  62 H62            5.2220    -6.6764    -2.2006 H       
  63 H63            6.3209    -5.7026    -0.2087 H       
  64 H64            5.1342    -4.5652    -0.8910 H       
  65 H65            6.9046    -7.9443    -6.8988 H       
  66 H66            7.9129   -11.3123    -3.7963 H       
  67 H67            8.1454   -13.6162    -4.6961 H       
  68 H68            7.8348   -13.9808    -7.1339 H       
  69 H69            7.3079   -12.0650    -8.5866 H       
  70 H70           -5.6163     2.6152     0.0430 H       
  71 H71           -5.2429     4.2532     0.0510 H       
@<TRIPOS>BOND
   1    1    2 ar
   2    1    3 ar
   3    1   20 1
   4    2    6 ar
   5    2   43 1
   6    3    4 ar
   7    3   44 1
   8    4    5 ar
   9    4    8 1
  10    5    6 ar
  11    5    7 1
  12    7   14 ar
  13    7   18 ar
  14    8    9 ar
  15    8   13 ar
  16    9   10 ar
  17    9   45 1
  18   10   11 ar
  19   10   46 1
  20   11   12 ar
  21   11   47 1
  22   12   13 ar
  23   12   48 1
  24   13   49 1
  25   14   15 ar
  26   14   50 1
  27   15   16 ar
  28   15   51 1
  29   16   17 ar
  30   16   19 1
  31   17   18 ar
  32   17   52 1
  33   18   53 1
  34   19   21 1
  35   19   54 1
  36   19   55 1
  37   20   38 1
  38   20   41 2
  39   21   22 1
  40   21   26 1
  41   22   23 1
  42   22   56 1
  43   22   57 1
  44   23   24 1
  45   23   58 1
  46   23   59 1
  47   24   25 1
  48   24   27 1
  49   24   60 1
  50   25   26 1
  51   25   61 1
  52   25   62 1
  53   26   63 1
  54   26   64 1
  55   27   28 1
  56   27   31 2
  57   28   29 2
  58   29   30 1
  59   29   32 1
  60   30   31 1
  61   30   65 1
  62   32   33 ar
  63   32   37 ar
  64   33   34 ar
  65   33   66 1
  66   34   35 ar
  67   34   67 1
  68   35   36 ar
  69   35   68 1
  70   36   37 ar
  71   36   69 1
  72   38   39 1
  73   39   40 2
  74   39   42 1
  75   40   41 1
  76   42   70 1
  77   42   71 1

#	End of record

