#	Name: ASD01913501
#	Creating user name:	WinNT
#	Creation time:	15. 06. 2019 20:01

#	Modifying user name:	WinNT
#	Modification time:	15. 06. 2019 20:01

#	Program:	/corina/corina34_cracker 3.40 0067  02.08.2006

@<TRIPOS>MOLECULE
ASD01913501
  38   40    0    0    0
SMALL
NO_CHARGES


@<TRIPOS>ATOM
   1 C1            -0.1026    -0.6747    -2.0369 C.ar    
   2 C2            -0.7348    -0.0146    -0.9860 C.ar    
   3 C3            -0.6814     1.3768    -0.9542 C.ar    
   4 N4            -0.0369     2.0161    -1.9160 N.ar    
   5 C5             0.5489     1.3545    -2.8938 C.ar    
   6 N6             0.5211     0.0385    -2.9598 N.ar    
   7 C7            -1.4592    -2.1202    -0.0467 C.ar    
   8 C8            -0.3102    -2.8889     0.1488 C.ar    
   9 C9            -0.4021    -4.2629     0.0908 C.ar    
  10 N10           -1.5573    -4.8563    -0.1466 N.ar    
  11 C11           -2.6715    -4.1650    -0.3379 C.ar    
  12 C12           -2.6607    -2.7786    -0.2944 C.ar    
  13 N13           -3.8664    -4.8378    -0.5856 N.am    
  14 C14           -3.8662    -6.1766    -0.7413 C.2     
  15 N15           -1.4058    -0.7298     0.0103 N.pl3   
  16 C16           -5.1129    -6.8774    -1.1146 C.ar    
  17 O17           -2.8408    -6.8077    -0.5745 O.2     
  18 C18           -5.1160    -8.2637    -1.2766 C.ar    
  19 C19           -6.2831    -8.9123    -1.6247 C.ar    
  20 C20           -7.4486    -8.1918    -1.8139 C.ar    
  21 C21           -7.4528    -6.8162    -1.6554 C.ar    
  22 C22           -6.2935    -6.1562    -1.3012 C.ar    
  23 Br23          -9.0517    -5.8410    -1.9170 Br      
  24 C24           -2.0528    -0.0166     1.1143 C.3     
  25 H25           -0.1175    -1.7531    -2.0950 H       
  26 H26           -1.1594     1.9254    -0.1561 H       
  27 H27            1.0667     1.9070    -3.6639 H       
  28 H28            0.6395    -2.4126     0.3429 H       
  29 H29            0.4835    -4.8625     0.2413 H       
  30 H30           -3.5707    -2.2182    -0.4503 H       
  31 H31           -4.6983    -4.3426    -0.6461 H       
  32 H32           -4.2067    -8.8276    -1.1300 H       
  33 H33           -6.2864    -9.9849    -1.7503 H       
  34 H34           -8.3592    -8.7044    -2.0867 H       
  35 H35           -6.2977    -5.0832    -1.1778 H       
  36 H36           -3.0825     0.2160     0.8427 H       
  37 H37           -2.0450    -0.6434     2.0060 H       
  38 H38           -1.5124     0.9083     1.3157 H       
@<TRIPOS>BOND
   1    1    2 ar
   2    1    6 ar
   3    1   25 1
   4    2    3 ar
   5    2   15 1
   6    3    4 ar
   7    3   26 1
   8    4    5 ar
   9    5    6 ar
  10    5   27 1
  11    7    8 ar
  12    7   12 ar
  13    7   15 1
  14    8    9 ar
  15    8   28 1
  16    9   10 ar
  17    9   29 1
  18   10   11 ar
  19   11   12 ar
  20   11   13 1
  21   12   30 1
  22   13   14 am
  23   13   31 1
  24   14   16 1
  25   14   17 2
  26   15   24 1
  27   16   18 ar
  28   16   22 ar
  29   18   19 ar
  30   18   32 1
  31   19   20 ar
  32   19   33 1
  33   20   21 ar
  34   20   34 1
  35   21   22 ar
  36   21   23 1
  37   22   35 1
  38   24   36 1
  39   24   37 1
  40   24   38 1

#	End of record

