#	Name: ASD00842307
#	Creating user name:	WinNT
#	Creation time:	15. 06. 2019 18:44

#	Modifying user name:	WinNT
#	Modification time:	15. 06. 2019 18:44

#	Program:	/corina/corina34_cracker 3.40 0067  02.08.2006

@<TRIPOS>MOLECULE
ASD00842307
  95  100    0    0    0
SMALL
NO_CHARGES


@<TRIPOS>ATOM
   1 F1             6.0981    -1.6527    -1.9705 F       
   2 C2             1.0068     1.5590    -0.3814 C.ar    
   3 C3             1.3136     0.2289    -0.6283 C.ar    
   4 C4             1.2444    -0.6991     0.4009 C.ar    
   5 C5             0.8705    -0.2968     1.6682 C.ar    
   6 C6             0.5647     1.0297     1.9116 C.ar    
   7 C7             0.6332     1.9564     0.8881 C.ar    
   8 C8             1.5766    -2.1450     0.1360 C.3     
   9 C9             1.3080    -2.9849     1.3666 C.2     
  10 C10            0.7730    -2.6685    -1.0561 C.3     
  11 C11           -0.6961    -2.4382    -0.8116 C.2     
  12 N12           -1.6067    -2.9089    -1.6866 N.am    
  13 O13           -1.0589    -1.8292     0.1725 O.2     
  14 C14           -3.0331    -2.5965    -1.5232 C.3     
  15 C15           -3.8275    -3.9064    -1.5198 C.3     
  16 C16           -3.4990    -4.7008    -2.7860 C.3     
  17 C17           -2.0070    -5.0408    -2.8043 C.3     
  18 C18           -1.1913    -3.7391    -2.8254 C.3     
  19 C19           -4.3167    -5.9938    -2.8030 C.3     
  20 C20           -5.8099    -5.6552    -2.7864 C.3     
  21 C21           -6.6224    -6.9497    -2.8650 C.3     
  22 N22           -6.2793    -7.6705    -4.0975 N.3     
  23 C23           -4.8602    -8.0477    -4.1145 C.3     
  24 C24           -3.9951    -6.7860    -4.0732 C.3     
  25 C25           -7.1392    -8.8481    -4.2755 C.3     
  26 O26            0.2367    -3.1379     1.9145 O.2     
  27 N27            2.4790    -3.5293     1.7375 N.am    
  28 C28            3.0591    -2.3118    -0.1068 C.ar    
  29 C29            3.5268    -3.1544     0.8939 C.ar    
  30 C30            3.9127    -1.8092    -1.0631 C.ar    
  31 C31            5.2570    -2.1433    -1.0339 C.ar    
  32 C32            5.7360    -2.9835    -0.0401 C.ar    
  33 C33            4.8790    -3.4877     0.9193 C.ar    
  34 F34            7.0464    -3.3106    -0.0099 F       
  35 C35            2.4060    -6.1787     2.4790 C.ar    
  36 C36            1.1626    -6.5653     2.0009 C.ar    
  37 C37            3.4473    -7.0864     2.5058 C.ar    
  38 C38            3.2510    -8.3788     2.0561 C.ar    
  39 C39            2.0123    -8.7667     1.5789 C.ar    
  40 C40            0.9680    -7.8632     1.5505 C.ar    
  41 H41            1.8614    -9.7770     1.2281 H       
  42 O42            0.1366    -5.6745     1.9740 O.3     
  43 C43           -1.1156    -6.1422     1.4687 C.3     
  44 C44           -6.9275    -9.4273    -5.6757 C.3     
  45 C45           -7.8232   -10.6538    -5.8611 C.3     
  46 O46            1.6808    -0.1645    -1.8761 O.3     
  47 C47            2.1635     0.2251    -4.2119 C.3     
  48 C48            1.6214     0.8197    -2.9105 C.3     
  49 S49            2.6591    -4.5294     3.0451 S.o2    
  50 O50            4.0239    -4.4429     3.4315 O.2     
  51 O51            1.5822    -4.2374     3.9250 O.2     
  52 H52            1.0641     2.2841    -1.1797 H       
  53 H53            0.8166    -1.0188     2.4696 H       
  54 H54            0.2719     1.3422     2.9031 H       
  55 H55            0.3939     2.9918     1.0808 H       
  56 H56            1.0781    -2.1409    -1.9597 H       
  57 H57            0.9580    -3.7357    -1.1785 H       
  58 H58           -3.1868    -2.0735    -0.5793 H       
  59 H59           -3.3667    -1.9690    -2.3496 H       
  60 H60           -3.5576    -4.4933    -0.6419 H       
  61 H61           -4.8944    -3.6847    -1.4959 H       
  62 H62           -3.7461    -4.1035    -3.6637 H       
  63 H63           -1.7542    -5.6170    -1.9143 H       
  64 H64           -1.7782    -5.6265    -3.6946 H       
  65 H65           -1.3759    -3.2073    -3.7588 H       
  66 H66           -0.1299    -3.9716    -2.7386 H       
  67 H67           -4.0693    -6.5928    -1.9266 H       
  68 H68           -6.0534    -5.1282    -1.8639 H       
  69 H69           -6.0492    -5.0229    -3.6415 H       
  70 H70           -6.3930    -7.5754    -2.0025 H       
  71 H71           -7.6860    -6.7113    -2.8678 H       
  72 H72           -4.6390    -8.6683    -3.2461 H       
  73 H73           -4.6439    -8.6068    -5.0248 H       
  74 H74           -4.2058    -6.1715    -4.9485 H       
  75 H75           -2.9419    -7.0669    -4.0700 H       
  76 H76           -6.8844    -9.6003    -3.5289 H       
  77 H77           -8.1829    -8.5572    -4.1566 H       
  78 H78            3.5347    -1.1555    -1.8352 H       
  79 H79            5.2585    -4.1412     1.6908 H       
  80 H80            4.4156    -6.7859     2.8780 H       
  81 H81            4.0664    -9.0867     2.0771 H       
  82 H82            0.0006    -8.1668     1.1784 H       
  83 H83           -0.9900    -6.4755     0.4385 H       
  84 H84           -1.4660    -6.9742     2.0795 H       
  85 H85           -1.8458    -5.3337     1.5025 H       
  86 H86           -7.1824    -8.6751    -6.4223 H       
  87 H87           -5.8838    -9.7182    -5.7946 H       
  88 H88           -7.5684   -11.4059    -5.1145 H       
  89 H89           -8.8669   -10.3628    -5.7422 H       
  90 H90           -7.6724   -11.0664    -6.8586 H       
  91 H91            3.1667    -0.1659    -4.0425 H       
  92 H92            1.5099    -0.5821    -4.5425 H       
  93 H93            2.1999     0.9998    -4.9778 H       
  94 H94            0.5872     1.1314    -3.0565 H       
  95 H95            2.2242     1.6822    -2.6263 H       
@<TRIPOS>BOND
   1    1   31 1
   2    2    3 ar
   3    2    7 ar
   4    2   52 1
   5    3    4 ar
   6    3   46 1
   7    4    5 ar
   8    4    8 1
   9    5    6 ar
  10    5   53 1
  11    6    7 ar
  12    6   54 1
  13    7   55 1
  14    8    9 1
  15    8   10 1
  16    8   28 1
  17    9   26 2
  18    9   27 am
  19   10   11 1
  20   10   56 1
  21   10   57 1
  22   11   12 am
  23   11   13 2
  24   12   14 1
  25   12   18 1
  26   14   15 1
  27   14   58 1
  28   14   59 1
  29   15   16 1
  30   15   60 1
  31   15   61 1
  32   16   17 1
  33   16   19 1
  34   16   62 1
  35   17   18 1
  36   17   63 1
  37   17   64 1
  38   18   65 1
  39   18   66 1
  40   19   20 1
  41   19   24 1
  42   19   67 1
  43   20   21 1
  44   20   68 1
  45   20   69 1
  46   21   22 1
  47   21   70 1
  48   21   71 1
  49   22   23 1
  50   22   25 1
  51   23   24 1
  52   23   72 1
  53   23   73 1
  54   24   74 1
  55   24   75 1
  56   25   44 1
  57   25   76 1
  58   25   77 1
  59   27   49 am
  60   27   29 1
  61   28   29 ar
  62   28   30 ar
  63   29   33 ar
  64   30   31 ar
  65   30   78 1
  66   31   32 ar
  67   32   33 ar
  68   32   34 1
  69   33   79 1
  70   35   36 ar
  71   35   37 ar
  72   35   49 1
  73   36   42 1
  74   36   40 ar
  75   37   38 ar
  76   37   80 1
  77   38   39 ar
  78   38   81 1
  79   39   40 ar
  80   39   41 1
  81   40   82 1
  82   42   43 1
  83   43   83 1
  84   43   84 1
  85   43   85 1
  86   44   45 1
  87   44   86 1
  88   44   87 1
  89   45   88 1
  90   45   89 1
  91   45   90 1
  92   46   48 1
  93   47   48 1
  94   47   91 1
  95   47   92 1
  96   47   93 1
  97   48   94 1
  98   48   95 1
  99   49   50 2
 100   49   51 2

#	End of record

