#	Name: ASD01882705
#	Creating user name:	WinNT
#	Creation time:	15. 06. 2019 19:45

#	Modifying user name:	WinNT
#	Modification time:	15. 06. 2019 19:45

#	Program:	/corina/corina34_cracker 3.40 0067  02.08.2006

@<TRIPOS>MOLECULE
ASD01882705
  54   56    0    0    0
SMALL
NO_CHARGES


@<TRIPOS>ATOM
   1 N1            -0.0165     1.3692     0.0096 N.pl3   
   2 O2             1.1412    -0.7243    -0.0127 O.3     
   3 C3             0.0021    -0.0041     0.0020 C.2     
   4 N4            -1.0753    -0.7270     0.0089 N.2     
   5 C5            -0.6823    -2.1496     0.0076 C.3     
   6 C6             0.8153    -2.0697     0.3922 C.3     
   7 C7             1.6390    -3.0940    -0.3909 C.3     
   8 O8             3.0178    -2.9666    -0.0377 O.3     
   9 C9             3.8916    -3.8096    -0.6484 C.ar    
  10 C10            5.2452    -3.7410    -0.3526 C.ar    
  11 C11            6.1314    -4.5989    -0.9747 C.ar    
  12 C12            5.6702    -5.5255    -1.8915 C.ar    
  13 C13            4.3216    -5.5956    -2.1884 C.ar    
  14 C14            3.4306    -4.7440    -1.5644 C.ar    
  15 C15            6.6391    -6.4602    -2.5687 C.3     
  16 C16            6.2634    -7.9073    -2.2437 C.3     
  17 C17            7.2471    -8.8563    -2.9312 C.3     
  18 C18            7.1890    -8.6420    -4.4450 C.3     
  19 C19            7.5646    -7.1949    -4.7700 C.3     
  20 C20            6.5810    -6.2459    -4.0825 C.3     
  21 C21            8.1727    -9.5910    -5.1325 C.3     
  22 C22            7.7970   -11.0381    -4.8075 C.3     
  23 C23            8.1146    -9.3768    -6.6463 C.3     
  24 C24            9.5901    -9.3072    -4.6313 C.3     
  25 H25            0.8168     1.8655     0.0043 H       
  26 H26           -0.8631     1.8427     0.0162 H       
  27 H27           -1.2463    -2.7101     0.7532 H       
  28 H28           -0.8071    -2.5872    -0.9829 H       
  29 H29            0.9511    -2.1991     1.4659 H       
  30 H30            1.2935    -4.0992    -0.1495 H       
  31 H31            1.5198    -2.9156    -1.4596 H       
  32 H32            5.6060    -3.0171     0.3632 H       
  33 H33            7.1853    -4.5456    -0.7450 H       
  34 H34            3.9639    -6.3197    -2.9054 H       
  35 H35            2.3767    -4.8024    -1.7930 H       
  36 H36            7.6489    -6.2580    -2.2116 H       
  37 H37            6.3048    -8.0600    -1.1652 H       
  38 H38            5.2536    -8.1095    -2.6008 H       
  39 H39            8.2569    -8.6541    -2.5741 H       
  40 H40            6.9794    -9.8873    -2.6996 H       
  41 H41            6.1792    -8.8442    -4.8021 H       
  42 H42            8.5744    -6.9927    -4.4129 H       
  43 H43            7.5233    -7.0423    -5.8485 H       
  44 H44            5.5712    -6.4481    -4.4396 H       
  45 H45            6.8486    -5.2150    -4.3141 H       
  46 H46            6.7872   -11.2404    -5.1646 H       
  47 H47            8.4978   -11.7142    -5.2973 H       
  48 H48            7.8384   -11.1908    -3.7290 H       
  49 H49            8.3822    -8.3458    -6.8779 H       
  50 H50            8.8153   -10.0528    -7.1362 H       
  51 H51            7.1048    -9.5790    -7.0034 H       
  52 H52            9.6315    -9.4598    -3.5528 H       
  53 H53           10.2909    -9.9833    -5.1211 H       
  54 H54            9.8577    -8.2762    -4.8629 H       
@<TRIPOS>BOND
   1    1    3 1
   2    1   25 1
   3    1   26 1
   4    2    3 1
   5    2    6 1
   6    3    4 2
   7    4    5 1
   8    5    6 1
   9    5   27 1
  10    5   28 1
  11    6    7 1
  12    6   29 1
  13    7    8 1
  14    7   30 1
  15    7   31 1
  16    8    9 1
  17    9   10 ar
  18    9   14 ar
  19   10   11 ar
  20   10   32 1
  21   11   12 ar
  22   11   33 1
  23   12   13 ar
  24   12   15 1
  25   13   14 ar
  26   13   34 1
  27   14   35 1
  28   15   16 1
  29   15   20 1
  30   15   36 1
  31   16   17 1
  32   16   37 1
  33   16   38 1
  34   17   18 1
  35   17   39 1
  36   17   40 1
  37   18   19 1
  38   18   21 1
  39   18   41 1
  40   19   20 1
  41   19   42 1
  42   19   43 1
  43   20   44 1
  44   20   45 1
  45   21   22 1
  46   21   24 1
  47   21   23 1
  48   22   46 1
  49   22   47 1
  50   22   48 1
  51   23   49 1
  52   23   50 1
  53   23   51 1
  54   24   52 1
  55   24   53 1
  56   24   54 1

#	End of record

