#	Name: ASD02198442
#	Creating user name:	WinNT
#	Creation time:	15. 06. 2019 20:19

#	Modifying user name:	WinNT
#	Modification time:	15. 06. 2019 20:19

#	Program:	/corina/corina34_cracker 3.40 0067  02.08.2006

@<TRIPOS>MOLECULE
ASD02198442
  47   50    0    0    0
SMALL
NO_CHARGES


@<TRIPOS>ATOM
   1 C1             0.1628     1.8645     0.1841 C.ar    
   2 S2             0.0747     0.1103     0.0435 S.o2    
   3 N3             0.0238    -0.5027     1.5810 N.am    
   4 C4            -1.0216    -0.1502     2.4399 C.ar    
   5 C5            -0.7779     0.0207     3.8190 C.ar    
   6 C6            -1.8515     0.3784     4.6710 C.ar    
   7 C7            -3.1402     0.5580     4.1325 C.ar    
   8 C8            -3.3452     0.3842     2.7827 C.ar    
   9 C9            -2.2919     0.0370     1.9419 C.ar    
  10 N10            0.4462    -0.1503     4.3274 N.ar    
  11 C11            0.6807     0.0062     5.6077 C.ar    
  12 C12           -0.3300     0.3570     6.4998 C.ar    
  13 C13           -1.6041     0.5479     6.0453 C.ar    
  14 O14           -1.1842    -0.1822    -0.5470 O.2     
  15 O15            1.3118    -0.3100    -0.5153 O.2     
  16 C16            1.3912     2.4889     0.2542 C.ar    
  17 C17            1.4593     3.8769     0.3649 C.ar    
  18 C18            0.2848     4.6259     0.4042 C.ar    
  19 C19           -0.9385     3.9906     0.3333 C.ar    
  20 C20           -0.9999     2.6136     0.2182 C.ar    
  21 C21            2.7767     4.5538     0.4412 C.ar    
  22 C22            2.8554     5.9442     0.5523 C.ar    
  23 C23            4.1086     6.5268     0.6205 C.ar    
  24 N24            5.1830     5.7542     0.5786 N.ar    
  25 C25            5.0752     4.4444     0.4733 C.ar    
  26 N26            3.9043     3.8459     0.4104 N.ar    
  27 C27            6.3280     3.6080     0.4290 C.3     
  28 O28           -4.1769     0.9008     4.9420 O.3     
  29 C29           -5.4551     1.0655     4.3246 C.3     
  30 H30            0.7193    -1.1063     1.8857 H       
  31 H31           -4.3340     0.5221     2.3707 H       
  32 H32           -2.4746    -0.0945     0.8857 H       
  33 H33            1.6836    -0.1409     5.9805 H       
  34 H34           -0.1065     0.4782     7.5494 H       
  35 H35           -2.3999     0.8201     6.7228 H       
  36 H36            2.2983     1.9035     0.2237 H       
  37 H37            0.3316     5.7015     0.4903 H       
  38 H38           -1.8494     4.5700     0.3636 H       
  39 H39           -1.9592     2.1207     0.1627 H       
  40 H40            1.9610     6.5489     0.5838 H       
  41 H41            4.2091     7.5987     0.7065 H       
  42 H42            6.6123     3.3255     1.4426 H       
  43 H43            6.1445     2.7098    -0.1606 H       
  44 H44            7.1333     4.1838    -0.0271 H       
  45 H45           -5.3970     1.8533     3.5736 H       
  46 H46           -5.7518     0.1309     3.8486 H       
  47 H47           -6.1913     1.3379     5.0808 H       
@<TRIPOS>BOND
   1    1    2 1
   2    1   16 ar
   3    1   20 ar
   4    2    3 am
   5    2   14 2
   6    2   15 2
   7    3    4 1
   8    3   30 1
   9    4    5 ar
  10    4    9 ar
  11    5    6 ar
  12    5   10 ar
  13    6    7 ar
  14    6   13 ar
  15    7    8 ar
  16    7   28 1
  17    8    9 ar
  18    8   31 1
  19    9   32 1
  20   10   11 ar
  21   11   12 ar
  22   11   33 1
  23   12   13 ar
  24   12   34 1
  25   13   35 1
  26   16   17 ar
  27   16   36 1
  28   17   18 ar
  29   17   21 1
  30   18   19 ar
  31   18   37 1
  32   19   20 ar
  33   19   38 1
  34   20   39 1
  35   21   22 ar
  36   21   26 ar
  37   22   23 ar
  38   22   40 1
  39   23   24 ar
  40   23   41 1
  41   24   25 ar
  42   25   26 ar
  43   25   27 1
  44   27   42 1
  45   27   43 1
  46   27   44 1
  47   28   29 1
  48   29   45 1
  49   29   46 1
  50   29   47 1

#	End of record

