#	Name: ASD01913948
#	Creating user name:	WinNT
#	Creation time:	15. 06. 2019 20:02

#	Modifying user name:	WinNT
#	Modification time:	15. 06. 2019 20:02

#	Program:	/corina/corina34_cracker 3.40 0067  02.08.2006

@<TRIPOS>MOLECULE
ASD01913948
  42   45    0    0    0
SMALL
NO_CHARGES


@<TRIPOS>ATOM
   1 C1            -0.0173     1.4278     0.0099 C.ar    
   2 C2             0.0021    -0.0041     0.0020 C.1     
   3 C3             0.0180    -1.1779    -0.0044 C.1     
   4 C4             0.0374    -2.6098    -0.0123 C.ar    
   5 C5            -1.1657    -3.3304    -0.0047 C.ar    
   6 C6             0.1700    -5.3026    -0.0290 C.ar    
   7 N7             1.2564    -4.5437    -0.0405 N.ar    
   8 N8             1.1960    -3.2616    -0.0324 N.ar    
   9 C9            -1.0939    -4.7113    -0.0133 C.ar    
  10 C10           -1.2353     2.1132     0.0311 C.ar    
  11 C11           -0.0581     4.1988     0.0261 C.ar    
  12 N12            0.2896    -6.6909    -0.0386 N.am    
  13 C13            1.1810     2.1458     0.0023 C.ar    
  14 C14           -1.2476     3.4922     0.0390 C.ar    
  15 C15            1.1540     3.5271     0.0105 C.ar    
  16 C16           -0.7290    -7.5557    -0.1243 C.2     
  17 N17           -0.3532    -8.8409    -0.1138 N.am    
  18 C18            1.1108    -8.9181    -0.0081 C.3     
  19 C19            1.5544    -7.4360     0.0375 C.3     
  20 O20           -1.8906    -7.2056    -0.2037 O.2     
  21 C21           -1.2589    -9.9895    -0.1945 C.3     
  22 C22            1.6854    -9.4992    -1.3154 C.3     
  23 C23            1.8863    -8.2640    -2.2275 C.3     
  24 C24            2.3784    -7.1882    -1.2418 C.3     
  25 H25            1.4282    -9.4724     0.8752 H       
  26 H26            2.1069    -7.2008     0.9472 H       
  27 F27            2.3112     4.2243     0.0027 F       
  28 H28           -2.1187    -2.8226     0.0079 H       
  29 H29           -1.9897    -5.3145    -0.0076 H       
  30 H30           -2.1651     1.5639     0.0408 H       
  31 H31           -0.0742     5.2786     0.0324 H       
  32 H32            2.1257     1.6226    -0.0095 H       
  33 H33           -2.1886     4.0221     0.0512 H       
  34 H34           -2.2878    -9.6367    -0.2650 H       
  35 H35           -1.0167   -10.5819    -1.0768 H       
  36 H36           -1.1461   -10.6046     0.6983 H       
  37 H37            2.6388    -9.9926    -1.1265 H       
  38 H38            0.9780   -10.1950    -1.7665 H       
  39 H39            2.6423    -8.4635    -2.9869 H       
  40 H40            0.9441    -7.9662    -2.6875 H       
  41 H41            2.1774    -6.1913    -1.6342 H       
  42 H42            3.4426    -7.3126    -1.0419 H       
@<TRIPOS>BOND
   1    1    2 1
   2    1   13 ar
   3    1   10 ar
   4    2    3 3
   5    3    4 1
   6    4    5 ar
   7    4    8 ar
   8    5    9 ar
   9    5   28 1
  10    6    7 ar
  11    6   12 1
  12    6    9 ar
  13    7    8 ar
  14    9   29 1
  15   10   14 ar
  16   10   30 1
  17   11   14 ar
  18   11   15 ar
  19   11   31 1
  20   12   16 am
  21   12   19 1
  22   13   15 ar
  23   13   32 1
  24   14   33 1
  25   15   27 1
  26   16   17 am
  27   16   20 2
  28   17   18 1
  29   17   21 1
  30   18   19 1
  31   18   22 1
  32   18   25 1
  33   19   26 1
  34   19   24 1
  35   21   34 1
  36   21   35 1
  37   21   36 1
  38   22   23 1
  39   22   37 1
  40   22   38 1
  41   23   24 1
  42   23   39 1
  43   23   40 1
  44   24   41 1
  45   24   42 1

#	End of record

