#	Name: ASD04590792
#	Creating user name:	WinNT
#	Creation time:	15. 06. 2019 20:51

#	Modifying user name:	WinNT
#	Modification time:	15. 06. 2019 20:51

#	Program:	/corina/corina34_cracker 3.40 0067  02.08.2006

@<TRIPOS>MOLECULE
ASD04590792
  36   37    0    0    0
SMALL
NO_CHARGES


@<TRIPOS>ATOM
   1 C1            -0.0173     1.4248     0.0099 C.3     
   2 O2             0.0021    -0.0041     0.0020 O.3     
   3 N3             3.5000     3.5030     1.2662 N.3     
   4 C4             2.8360     4.0086     0.0580 C.3     
   5 C5             1.3987     3.4854     0.0074 C.3     
   6 C6             1.4181     1.9544    -0.0010 C.3     
   7 C7             2.1574     1.4543     1.2431 C.3     
   8 C8             3.5727     2.0364     1.2579 C.3     
   9 C9             4.8355     4.0954     1.4200 C.3     
  10 C10            5.3844     3.7505     2.7804 C.ar    
  11 C11            6.1288     2.5987     2.9536 C.ar    
  12 C12            6.6323     2.2823     4.2015 C.ar    
  13 C13            6.3918     3.1180     5.2761 C.ar    
  14 C14            5.6481     4.2702     5.1027 C.ar    
  15 C15            5.1483     4.5889     3.8539 C.ar    
  16 N16            2.1077     1.4788    -1.2077 N.3     
  17 H17           -0.5445     1.7859    -0.8732 H       
  18 H18           -0.5275     1.7763     0.9067 H       
  19 H19           -0.8759    -0.4094     0.0082 H       
  20 H20            2.8252     5.0984     0.0786 H       
  21 H21            3.3779     3.6675    -0.8240 H       
  22 H22            0.8522     3.8376     0.8823 H       
  23 H23            0.9110     3.8481    -0.8974 H       
  24 H24            1.6229     1.7745     2.1374 H       
  25 H25            2.2118     0.3659     1.2212 H       
  26 H26            4.1112     1.7045     0.3702 H       
  27 H27            4.0970     1.6937     2.1499 H       
  28 H28            5.4986     3.7012     0.6500 H       
  29 H29            4.7661     5.1786     1.3201 H       
  30 H30            6.3168     1.9458     2.1141 H       
  31 H31            7.2133     1.3820     4.3370 H       
  32 H32            6.7846     2.8704     6.2512 H       
  33 H33            5.4599     4.9230     5.9423 H       
  34 H34            4.5704     5.4910     3.7176 H       
  35 H35            2.1351     0.4705    -1.2348 H       
  36 H36            1.6772     1.8513    -2.0408 H       
@<TRIPOS>BOND
   1    1    2 1
   2    1    6 1
   3    1   17 1
   4    1   18 1
   5    2   19 1
   6    3    4 1
   7    3    8 1
   8    3    9 1
   9    4    5 1
  10    4   20 1
  11    4   21 1
  12    5    6 1
  13    5   22 1
  14    5   23 1
  15    6    7 1
  16    6   16 1
  17    7    8 1
  18    7   24 1
  19    7   25 1
  20    8   26 1
  21    8   27 1
  22    9   10 1
  23    9   28 1
  24    9   29 1
  25   10   11 ar
  26   10   15 ar
  27   11   12 ar
  28   11   30 1
  29   12   13 ar
  30   12   31 1
  31   13   14 ar
  32   13   32 1
  33   14   15 ar
  34   14   33 1
  35   15   34 1
  36   16   35 1
  37   16   36 1

#	End of record

