#	Name: ASD01908379
#	Creating user name:	WinNT
#	Creation time:	15. 06. 2019 19:55

#	Modifying user name:	WinNT
#	Modification time:	15. 06. 2019 19:55

#	Program:	/corina/corina34_cracker 3.40 0067  02.08.2006

@<TRIPOS>MOLECULE
ASD01908379
  42   45    0    0    0
SMALL
NO_CHARGES


@<TRIPOS>ATOM
   1 C1             0.0815     1.2925    -1.2944 C.ar    
   2 C2             0.0952    -0.0836    -1.1667 C.ar    
   3 C3             1.2853    -0.7377    -0.9241 C.ar    
   4 C4             2.4720    -0.0237    -0.8069 C.ar    
   5 C5             2.4584     1.3467    -0.9341 C.ar    
   6 C6             1.2581     2.0034    -1.1784 C.ar    
   7 S7             4.1069    -0.6114    -0.5026 S.o2    
   8 N8             5.0915     0.7244    -0.4736 N.am    
   9 S9             4.0809     2.0123    -0.7461 S.o2    
  10 C10            6.4721     0.7575    -0.2643 C.ar    
  11 C11            7.1471     1.9703    -0.2716 C.ar    
  12 C12            7.1705    -0.4231    -0.0428 C.ar    
  13 C13            8.5362    -0.3911     0.1649 C.ar    
  14 C14            9.2116     0.8139     0.1530 C.ar    
  15 C15            8.5183     1.9988    -0.0628 C.ar    
  16 O16            4.4451     2.5505    -2.0098 O.2     
  17 O17            4.0676     2.7752     0.4527 O.2     
  18 O18            4.1064    -1.1408     0.8161 O.2     
  19 O19            4.4839    -1.3656    -1.6464 O.2     
  20 N20            9.2030     3.2181    -0.0752 N.am    
  21 C21           10.4489     3.2862    -0.5848 C.2     
  22 C22           11.1322     4.5911    -0.6929 C.ar    
  23 O23           11.0102     2.2735    -0.9556 O.2     
  24 C24           12.4232     4.6645    -1.2206 C.ar    
  25 C25           13.0563     5.8849    -1.3191 C.ar    
  26 C26           12.4140     7.0382    -0.8951 C.ar    
  27 C27           11.1323     6.9711    -0.3704 C.ar    
  28 C28           10.4875     5.7567    -0.2730 C.ar    
  29 F29           13.0394     8.2317    -0.9931 F       
  30 H30           -0.8467     1.8092    -1.4887 H       
  31 H31           -0.8231    -0.6451    -1.2562 H       
  32 H32            1.2950    -1.8130    -0.8241 H       
  33 H33            1.2464     3.0787    -1.2787 H       
  34 H34            6.6060     2.8897    -0.4398 H       
  35 H35            6.6453    -1.3668    -0.0325 H       
  36 H36            9.0767    -1.3100     0.3372 H       
  37 H37           10.2791     0.8355     0.3156 H       
  38 H38            8.7813     4.0148     0.2830 H       
  39 H39           12.9247     3.7667    -1.5505 H       
  40 H40           14.0546     5.9429    -1.7271 H       
  41 H41           10.6365     7.8725    -0.0416 H       
  42 H42            9.4892     5.7055     0.1358 H       
@<TRIPOS>BOND
   1    1    2 ar
   2    1    6 ar
   3    1   30 1
   4    2    3 ar
   5    2   31 1
   6    3    4 ar
   7    3   32 1
   8    4    5 ar
   9    4    7 1
  10    5    6 ar
  11    5    9 1
  12    6   33 1
  13    7    8 am
  14    7   18 2
  15    7   19 2
  16    8    9 am
  17    8   10 1
  18    9   16 2
  19    9   17 2
  20   10   11 ar
  21   10   12 ar
  22   11   15 ar
  23   11   34 1
  24   12   13 ar
  25   12   35 1
  26   13   14 ar
  27   13   36 1
  28   14   15 ar
  29   14   37 1
  30   15   20 1
  31   20   21 am
  32   20   38 1
  33   21   22 1
  34   21   23 2
  35   22   24 ar
  36   22   28 ar
  37   24   25 ar
  38   24   39 1
  39   25   26 ar
  40   25   40 1
  41   26   27 ar
  42   26   29 1
  43   27   28 ar
  44   27   41 1
  45   28   42 1

#	End of record

