#	Name: ASD00843985
#	Creating user name:	WinNT
#	Creation time:	15. 06. 2019 18:48

#	Modifying user name:	WinNT
#	Modification time:	15. 06. 2019 18:48

#	Program:	/corina/corina34_cracker 3.40 0067  02.08.2006

@<TRIPOS>MOLECULE
ASD00843985
  95  100    0    0    0
SMALL
NO_CHARGES


@<TRIPOS>ATOM
   1 F1            -0.0973    -3.1246     4.7250 F       
   2 N2            -0.0159     1.3183     0.0093 N.ar    
   3 C3             0.0021    -0.0041     0.0020 C.ar    
   4 C4             1.2069    -0.6955    -0.0132 C.ar    
   5 C5             2.3925     0.0180    -0.0207 C.ar    
   6 C6             2.3308     1.4049    -0.0127 C.ar    
   7 C7             1.0980     2.0259     0.0025 C.ar    
   8 C8             1.2224    -2.2024    -0.0209 C.3     
   9 C9             0.4764    -2.7341    -1.2259 C.2     
  10 O10            2.5880    -2.6957    -0.0100 O.3     
  11 C11            3.3812    -2.3219    -1.0317 C.2     
  12 N12            4.6598    -2.7450    -1.0818 N.am    
  13 O13            2.9442    -1.6031    -1.9086 O.2     
  14 C14            5.5375    -2.3455    -2.1904 C.3     
  15 C15            6.1419    -3.6050    -2.8192 C.3     
  16 C16            6.8366    -4.4295    -1.7331 C.3     
  17 C17            5.8108    -4.8591    -0.6818 C.3     
  18 C18            5.2043    -3.6094    -0.0259 C.3     
  19 N19            7.4459    -5.6214    -2.3382 N.3     
  20 C20            8.2232    -6.3769    -1.3459 C.3     
  21 C21            8.7740    -7.6491    -1.9943 C.3     
  22 N22            9.6092    -7.2858    -3.1477 N.3     
  23 C23            8.8318    -6.5304    -4.1400 C.3     
  24 C24            8.2810    -5.2582    -3.4915 C.3     
  25 C25           10.2184    -8.4778    -3.7527 C.3     
  26 O26            0.7566    -2.5392    -2.3898 O.2     
  27 N27           -0.5539    -3.4627    -0.7649 N.am    
  28 C28            0.4505    -2.7460     1.1600 C.ar    
  29 C29           -0.5988    -3.4907     0.6311 C.ar    
  30 C30            0.6193    -2.6223     2.5215 C.ar    
  31 C31           -0.2615    -3.2439     3.3894 C.ar    
  32 C32           -1.3224    -3.9967     2.8756 C.ar    
  33 C33           -1.4874    -4.1183     1.4962 C.ar    
  34 C34           -1.0160    -5.8566    -2.0415 C.ar    
  35 C35            0.1623    -6.0214    -2.7548 C.ar    
  36 C36           -1.6929    -6.9621    -1.5633 C.ar    
  37 C37           -1.1966    -8.2315    -1.7946 C.ar    
  38 C38           -0.0222    -8.3983    -2.5054 C.ar    
  39 C39            0.6580    -7.2965    -2.9861 C.ar    
  40 H40            0.3634    -9.3910    -2.6849 H       
  41 O41            0.8297    -4.9356    -3.2267 O.3     
  42 C42            2.0360    -5.1806    -3.9525 C.3     
  43 C43            2.6412    -3.8487    -4.4004 C.3     
  44 C44           10.8703    -8.0975    -5.0836 C.3     
  45 C45           11.5048    -9.3389    -5.7138 C.3     
  46 C46           -2.2386    -4.6434     3.7661 C.1     
  47 N47           -2.9655    -5.1564     4.4724 N.1     
  48 O48           -1.1673    -0.6919     0.0099 O.3     
  49 C49           -2.3720     0.0766     0.0260 C.3     
  50 C50           -3.5777    -0.8652     0.0330 C.3     
  51 F51           -3.5507    -1.6659    -1.1140 F       
  52 F52           -3.5280    -1.6782     1.1704 F       
  53 S53           -1.6450    -4.2387    -1.7395 S.o2    
  54 O54           -2.8259    -4.4051    -0.9668 O.2     
  55 O55           -1.6221    -3.5598    -2.9876 O.2     
  56 H56            3.3442    -0.4925    -0.0322 H       
  57 H57            3.2375     1.9916    -0.0178 H       
  58 H58            1.0444     3.1046     0.0084 H       
  59 H59            4.9579    -1.8054    -2.9390 H       
  60 H60            6.3358    -1.7067    -1.8124 H       
  61 H61            5.3505    -4.1989    -3.2765 H       
  62 H62            6.8686    -3.3191    -3.5797 H       
  63 H63            7.6114    -3.8267    -1.2594 H       
  64 H64            5.0225    -5.4412    -1.1593 H       
  65 H65            6.3018    -5.4659     0.0789 H       
  66 H66            5.9769    -3.0761     0.5281 H       
  67 H67            4.4035    -3.9046     0.6521 H       
  68 H68            9.0503    -5.7635    -0.9883 H       
  69 H69            7.5801    -6.6451    -0.5077 H       
  70 H70            9.3751    -8.1965    -1.2682 H       
  71 H71            7.9463    -8.2751    -2.3275 H       
  72 H72            9.4749    -6.2622    -4.9782 H       
  73 H73            8.0047    -7.1437    -4.4975 H       
  74 H74            7.6800    -4.7108    -4.2176 H       
  75 H75            9.1087    -4.6321    -3.1583 H       
  76 H76           10.9751    -8.8805    -3.0795 H       
  77 H77            9.4493    -9.2303    -3.9268 H       
  78 H78            1.4404    -2.0397     2.9122 H       
  79 H79           -2.3067    -4.6997     1.0998 H       
  80 H80           -2.6103    -6.8344    -1.0079 H       
  81 H81           -1.7269    -9.0943    -1.4193 H       
  82 H82            1.5748    -7.4274    -3.5418 H       
  83 H83            2.7453    -5.7049    -3.3121 H       
  84 H84            1.8157    -5.7921    -4.8276 H       
  85 H85            3.5613    -4.0356    -4.9540 H       
  86 H86            1.9319    -3.3244    -5.0408 H       
  87 H87            2.8615    -3.2372    -3.5254 H       
  88 H88           10.1136    -7.6948    -5.7569 H       
  89 H89           11.6394    -7.3450    -4.9096 H       
  90 H90           11.9693    -9.0680    -6.6620 H       
  91 H91           12.2616    -9.7417    -5.0406 H       
  92 H92           10.7358   -10.0915    -5.8878 H       
  93 H93           -2.3931     0.7004     0.9196 H       
  94 H94           -2.4108     0.7099    -0.8602 H       
  95 H95           -4.4966    -0.2790     0.0452 H       
@<TRIPOS>BOND
   1    1   31 1
   2    2    3 ar
   3    2    7 ar
   4    3    4 ar
   5    3   48 1
   6    4    5 ar
   7    4    8 1
   8    5    6 ar
   9    5   56 1
  10    6    7 ar
  11    6   57 1
  12    7   58 1
  13    8    9 1
  14    8   10 1
  15    8   28 1
  16    9   26 2
  17    9   27 am
  18   10   11 1
  19   11   12 am
  20   11   13 2
  21   12   14 1
  22   12   18 1
  23   14   15 1
  24   14   59 1
  25   14   60 1
  26   15   16 1
  27   15   61 1
  28   15   62 1
  29   16   17 1
  30   16   19 1
  31   16   63 1
  32   17   18 1
  33   17   64 1
  34   17   65 1
  35   18   66 1
  36   18   67 1
  37   19   20 1
  38   19   24 1
  39   20   21 1
  40   20   68 1
  41   20   69 1
  42   21   22 1
  43   21   70 1
  44   21   71 1
  45   22   23 1
  46   22   25 1
  47   23   24 1
  48   23   72 1
  49   23   73 1
  50   24   74 1
  51   24   75 1
  52   25   44 1
  53   25   76 1
  54   25   77 1
  55   27   53 am
  56   27   29 1
  57   28   29 ar
  58   28   30 ar
  59   29   33 ar
  60   30   31 ar
  61   30   78 1
  62   31   32 ar
  63   32   33 ar
  64   32   46 1
  65   33   79 1
  66   34   35 ar
  67   34   36 ar
  68   34   53 1
  69   35   41 1
  70   35   39 ar
  71   36   37 ar
  72   36   80 1
  73   37   38 ar
  74   37   81 1
  75   38   39 ar
  76   38   40 1
  77   39   82 1
  78   41   42 1
  79   42   43 1
  80   42   83 1
  81   42   84 1
  82   43   85 1
  83   43   86 1
  84   43   87 1
  85   44   45 1
  86   44   88 1
  87   44   89 1
  88   45   90 1
  89   45   91 1
  90   45   92 1
  91   46   47 3
  92   48   49 1
  93   49   50 1
  94   49   93 1
  95   49   94 1
  96   50   51 1
  97   50   52 1
  98   50   95 1
  99   53   54 2
 100   53   55 2

#	End of record

