#	Name: ASD00069215
#	Creating user name:	WinNT
#	Creation time:	15. 06. 2019 18:29

#	Modifying user name:	WinNT
#	Modification time:	15. 06. 2019 18:29

#	Program:	/corina/corina34_cracker 3.40 0067  02.08.2006

@<TRIPOS>MOLECULE
ASD00069215
  95  101    0    0    0
SMALL
NO_CHARGES


@<TRIPOS>ATOM
   1 N1             0.1509     1.4880    -0.0550 N.3     
   2 C2             0.1188     0.0199    -0.0474 C.3     
   3 C3             0.7873    -0.5128    -1.3168 C.3     
   4 C4             2.2345    -0.0156    -1.3728 C.3     
   5 C5             2.2420     1.5150    -1.3306 C.3     
   6 C6             1.5313     1.9889    -0.0608 C.3     
   7 C7             0.7734    -2.0196    -1.2983 C.2     
   8 O8             0.2776    -2.6100    -0.3621 O.2     
   9 N9             1.3119    -2.7111    -2.3222 N.am    
  10 C10            1.5188     3.5184    -0.0243 C.3     
  11 C11            1.2983    -4.1759    -2.3042 C.3     
  12 C12            1.3646    -4.7042    -3.7386 C.3     
  13 C13            1.3504    -6.2340    -3.7199 C.3     
  14 C14            2.5579    -6.7456    -2.9317 C.3     
  15 C15            2.4916    -6.2173    -1.4973 C.3     
  16 C16            2.5058    -4.6875    -1.5160 C.3     
  17 C17           -2.2406     3.3662     1.8282 C.ar    
  18 N18           -1.5544     2.8662     0.8111 N.ar    
  19 C19           -0.5608     2.0059     1.0155 C.ar    
  20 C20           -0.2453     1.6317     2.3205 C.ar    
  21 C21           -0.9888     2.1782     3.3643 C.ar    
  22 N22           -1.9708     3.0351     3.0809 N.ar    
  23 N23           -3.2635     4.2632     1.5743 N.pl3   
  24 C24           -4.0349     4.8280     2.6843 C.3     
  25 C25            0.2297     0.8887     6.4921 C.2     
  26 N26            0.2620     0.9676     5.1812 N.2     
  27 C27           -0.6931     1.8120     4.7700 C.2     
  28 C28           -1.3510     2.2803     5.8860 C.2     
  29 N29           -0.7687     1.6988     6.9575 N.pl3   
  30 C30            1.1196     0.0582     7.3243 C.2     
  31 N31            2.0663    -0.7055     6.7439 N.am    
  32 O32            0.9992     0.0623     8.5346 O.2     
  33 C33            2.9878    -1.4012     7.5364 C.ar    
  34 C34            3.4678    -2.6445     7.1233 C.ar    
  35 C35            4.3805    -3.3278     7.9126 C.ar    
  36 C36            4.8121    -2.7767     9.1050 C.ar    
  37 C37            4.3361    -1.5450     9.5145 C.ar    
  38 C38            3.4302    -0.8540     8.7311 C.ar    
  39 O39            1.6923    -6.3140     5.0293 O.3     
  40 C40            0.6581    -7.1059     4.4159 C.3     
  41 C41            0.3382    -6.3884     3.0858 C.3     
  42 O42            1.5372    -5.6134     2.8382 O.3     
  43 C43            1.9426    -5.2033     4.1575 C.3     
  44 C44            1.1224    -3.9929     4.5993 C.3     
  45 C45            1.6007    -3.5344     5.9796 C.3     
  46 N46            3.0293    -3.2003     5.9167 N.3     
  47 C47            3.8355    -4.3727     5.5536 C.3     
  48 C48            3.4305    -4.8587     4.1593 C.3     
  49 H49            0.6532    -0.3505     0.8274 H       
  50 H50           -0.9161    -0.3205    -0.0117 H       
  51 H51            0.2451    -0.1540    -2.1916 H       
  52 H52            2.7872    -0.4063    -0.5184 H       
  53 H53            2.7014    -0.3568    -2.2967 H       
  54 H54            3.2712     1.8739    -1.3271 H       
  55 H55            1.7227     1.9057    -2.2056 H       
  56 H56            2.0591     1.6092     0.8141 H       
  57 H57            1.7084    -2.2389    -3.0710 H       
  58 H58            1.0134     3.8562     0.8805 H       
  59 H59            2.5433     3.8904    -0.0286 H       
  60 H60            0.9906     3.8984    -0.8988 H       
  61 H61            0.3808    -4.5250    -1.8305 H       
  62 H62            0.5044    -4.3397    -4.3002 H       
  63 H63            2.2821    -4.3551    -4.2123 H       
  64 H64            0.4329    -6.5831    -3.2462 H       
  65 H65            1.3977    -6.6103    -4.7418 H       
  66 H66            2.5478    -7.8355    -2.9183 H       
  67 H67            3.4754    -6.3965    -3.4054 H       
  68 H68            1.5741    -6.5664    -1.0236 H       
  69 H69            3.3518    -6.5818    -0.9358 H       
  70 H70            3.4233    -4.3384    -1.9898 H       
  71 H71            2.4585    -4.3112    -0.4942 H       
  72 H72            0.5559     0.9349     2.5178 H       
  73 H73           -3.4697     4.5179     0.6613 H       
  74 H74           -4.5213     4.0231     3.2354 H       
  75 H75           -3.3665     5.3727     3.3511 H       
  76 H76           -4.7908     5.5084     2.2923 H       
  77 H77           -2.1744     2.9790     5.9015 H       
  78 H78           -1.0142     1.8313     7.8866 H       
  79 H79            2.1095    -0.7732     5.7772 H       
  80 H80            4.7539    -4.2905     7.5962 H       
  81 H81            5.5229    -3.3102     9.7186 H       
  82 H82            4.6762    -1.1193    10.4469 H       
  83 H83            3.0639     0.1100     9.0519 H       
  84 H84            1.0189    -8.1163     4.2237 H       
  85 H85           -0.2257    -7.1335     5.0532 H       
  86 H86            0.1748    -7.1118     2.2870 H       
  87 H87           -0.5269    -5.7349     3.1986 H       
  88 H88            1.2531    -3.1832     3.8813 H       
  89 H89            0.0687    -4.2669     4.6517 H       
  90 H90            1.0350    -2.6546     6.2863 H       
  91 H91            1.4464    -4.3356     6.7023 H       
  92 H92            4.8912    -4.1011     5.5513 H       
  93 H93            3.6667    -5.1685     6.2790 H       
  94 H94            4.0096    -5.7451     3.9005 H       
  95 H95            3.6227    -4.0720     3.4297 H       
@<TRIPOS>BOND
   1    1    2 1
   2    1    6 1
   3    1   19 1
   4    2    3 1
   5    2   49 1
   6    2   50 1
   7    3    4 1
   8    3    7 1
   9    3   51 1
  10    4    5 1
  11    4   52 1
  12    4   53 1
  13    5    6 1
  14    5   54 1
  15    5   55 1
  16    6   10 1
  17    6   56 1
  18    7    8 2
  19    7    9 am
  20    9   11 1
  21    9   57 1
  22   10   58 1
  23   10   59 1
  24   10   60 1
  25   11   12 1
  26   11   16 1
  27   11   61 1
  28   12   13 1
  29   12   62 1
  30   12   63 1
  31   13   14 1
  32   13   64 1
  33   13   65 1
  34   14   15 1
  35   14   66 1
  36   14   67 1
  37   15   16 1
  38   15   68 1
  39   15   69 1
  40   16   70 1
  41   16   71 1
  42   17   18 ar
  43   17   22 ar
  44   17   23 1
  45   18   19 ar
  46   19   20 ar
  47   20   21 ar
  48   20   72 1
  49   21   22 ar
  50   21   27 1
  51   23   24 1
  52   23   73 1
  53   24   74 1
  54   24   75 1
  55   24   76 1
  56   25   26 2
  57   25   29 1
  58   25   30 1
  59   26   27 1
  60   27   28 2
  61   28   29 1
  62   28   77 1
  63   29   78 1
  64   30   31 am
  65   30   32 2
  66   31   33 1
  67   31   79 1
  68   33   34 ar
  69   33   38 ar
  70   34   35 ar
  71   34   46 1
  72   35   36 ar
  73   35   80 1
  74   36   37 ar
  75   36   81 1
  76   37   38 ar
  77   37   82 1
  78   38   83 1
  79   39   40 1
  80   39   43 1
  81   40   41 1
  82   40   84 1
  83   40   85 1
  84   41   42 1
  85   41   86 1
  86   41   87 1
  87   42   43 1
  88   43   44 1
  89   43   48 1
  90   44   45 1
  91   44   88 1
  92   44   89 1
  93   45   46 1
  94   45   90 1
  95   45   91 1
  96   46   47 1
  97   47   48 1
  98   47   92 1
  99   47   93 1
 100   48   94 1
 101   48   95 1

#	End of record

