#	Name: ASD03900010
#	Creating user name:	WinNT
#	Creation time:	15. 06. 2019 20:47

#	Modifying user name:	WinNT
#	Modification time:	15. 06. 2019 20:47

#	Program:	/corina/corina34_cracker 3.40 0067  02.08.2006

@<TRIPOS>MOLECULE
ASD03900010
  50   52    0    0    0
SMALL
NO_CHARGES


@<TRIPOS>ATOM
   1 C1            -0.0184     1.5028     0.0103 C.3     
   2 C2             0.3522     0.0567     0.2167 C.ar    
   3 C3             1.1989     2.3674     0.2147 C.ar    
   4 C4            -0.5399     1.6926    -1.3908 C.ar    
   5 C5            -1.1009     1.9003     1.0157 C.3     
   6 C6            -0.1488    -0.6358     1.3035 C.ar    
   7 C7             0.1895    -1.9615     1.4949 C.ar    
   8 C8             1.0326    -2.5979     0.5956 C.ar    
   9 C9             1.5339    -1.9008    -0.4941 C.ar    
  10 C10            1.1882    -0.5769    -0.6842 C.ar    
  11 C11            1.0830     3.7444     0.1681 C.ar    
  12 C12            2.1974     4.5392     0.3551 C.ar    
  13 C13            3.4334     3.9546     0.5898 C.ar    
  14 C14            3.5470     2.5727     0.6360 C.ar    
  15 C15            2.4286     1.7824     0.4540 C.ar    
  16 C16           -1.7352     1.1084    -1.7673 C.ar    
  17 C17           -2.2154     1.2810    -3.0511 C.ar    
  18 C18           -1.4973     2.0412    -3.9627 C.ar    
  19 C19           -0.2983     2.6263    -3.5824 C.ar    
  20 C20            0.1748     2.4554    -2.2958 C.ar    
  21 O21            1.3671    -3.9018     0.7819 O.3     
  22 O22            4.5312     4.7343     0.7736 O.3     
  23 C23            5.7708     4.0639     1.0106 C.3     
  24 C24            6.8667     5.0828     1.1895 C.2     
  25 O25           -1.9675     2.2120    -5.2263 O.3     
  26 O26            6.6123     6.2620     1.1212 O.2     
  27 O27            8.1254     4.6803     1.4249 O.3     
  28 C28            9.1294     5.7166     1.5869 C.3     
  29 H29           -0.7237     1.7630     2.0291 H       
  30 H30           -1.3690     2.9462     0.8665 H       
  31 H31           -1.9814     1.2749     0.8679 H       
  32 H32           -0.8048    -0.1398     2.0036 H       
  33 H33           -0.2018    -2.5019     2.3442 H       
  34 H34            2.1904    -2.3940    -1.1957 H       
  35 H35            1.5782    -0.0338    -1.5323 H       
  36 H36            0.1206     4.1990    -0.0150 H       
  37 H37            2.1064     5.6147     0.3183 H       
  38 H38            4.5082     2.1152     0.8186 H       
  39 H39            2.5165     0.7066     0.4899 H       
  40 H40           -2.2936     0.5164    -1.0574 H       
  41 H41           -3.1489     0.8241    -3.3448 H       
  42 H42            0.2625     3.2186    -4.2903 H       
  43 H43            1.1082     2.9107    -1.9992 H       
  44 H44            0.7649    -4.5271     0.3560 H       
  45 H45            5.6888     3.4564     1.9118 H       
  46 H46            6.0056     3.4232     0.1606 H       
  47 H47           -2.5392     2.9847    -5.3321 H       
  48 H48            9.1794     6.3191     0.6799 H       
  49 H49            8.8626     6.3522     2.4312 H       
  50 H50           10.1002     5.2563     1.7712 H       
@<TRIPOS>BOND
   1    1    2 1
   2    1    3 1
   3    1    4 1
   4    1    5 1
   5    2    6 ar
   6    2   10 ar
   7    3   11 ar
   8    3   15 ar
   9    4   16 ar
  10    4   20 ar
  11    5   29 1
  12    5   30 1
  13    5   31 1
  14    6    7 ar
  15    6   32 1
  16    7    8 ar
  17    7   33 1
  18    8    9 ar
  19    8   21 1
  20    9   10 ar
  21    9   34 1
  22   10   35 1
  23   11   12 ar
  24   11   36 1
  25   12   13 ar
  26   12   37 1
  27   13   14 ar
  28   13   22 1
  29   14   15 ar
  30   14   38 1
  31   15   39 1
  32   16   17 ar
  33   16   40 1
  34   17   18 ar
  35   17   41 1
  36   18   19 ar
  37   18   25 1
  38   19   20 ar
  39   19   42 1
  40   20   43 1
  41   21   44 1
  42   22   23 1
  43   23   24 1
  44   23   45 1
  45   23   46 1
  46   24   26 2
  47   24   27 1
  48   25   47 1
  49   27   28 1
  50   28   48 1
  51   28   49 1
  52   28   50 1

#	End of record

