#	Name: ASD01916738
#	Creating user name:	WinNT
#	Creation time:	15. 06. 2019 20:07

#	Modifying user name:	WinNT
#	Modification time:	15. 06. 2019 20:07

#	Program:	/corina/corina34_cracker 3.40 0067  02.08.2006

@<TRIPOS>MOLECULE
ASD01916738
  31   33    0    0    0
SMALL
NO_CHARGES


@<TRIPOS>ATOM
   1 S1            -0.0211     1.7022     0.0114 S.3     
   2 C2             0.0021    -0.0041     0.0020 C.2     
   3 N3             1.1980    -0.4571    -0.0118 N.2     
   4 C4             2.2082     0.4340    -0.0167 C.ar    
   5 C5             1.7392     1.7517    -0.0051 C.ar    
   6 C6             2.6357     2.8185    -0.0084 C.ar    
   7 C7             3.9916     2.5820    -0.0235 C.ar    
   8 C8             4.4707     1.2798    -0.0350 C.ar    
   9 C9             3.6022     0.2149    -0.0312 C.ar    
  10 C10           -1.2321    -0.8688     0.0096 C.3     
  11 C11           -1.6355    -1.1692     1.4546 C.3     
  12 C12           -2.8410    -2.0139     1.4620 C.1     
  13 C13           -3.8025    -2.6875     1.4679 C.1     
  14 C14           -4.9752    -3.5092     1.4752 C.ar    
  15 C15           -5.5302    -3.9130     2.6901 C.ar    
  16 C16           -6.6633    -4.7067     2.6803 C.ar    
  17 C17           -7.2063    -5.0721     1.4561 C.ar    
  18 C18           -6.6050    -4.6365     0.2897 C.ar    
  19 N19           -5.5294    -3.8767     0.3256 N.ar    
  20 F20            4.0849    -1.0469    -0.0426 F       
  21 H21            2.2658     3.8331     0.0006 H       
  22 H22            4.6836     3.4112    -0.0266 H       
  23 H23            5.5358     1.1017    -0.0468 H       
  24 H24           -2.0454    -0.3457    -0.4934 H       
  25 H25           -1.0241    -1.8034    -0.5113 H       
  26 H26           -0.8222    -1.6923     1.9576 H       
  27 H27           -1.8435    -0.2346     1.9755 H       
  28 H28           -5.0814    -3.6105     3.6247 H       
  29 H29           -7.1152    -5.0351     3.6046 H       
  30 H30           -8.0902    -5.6913     1.4151 H       
  31 H31           -7.0254    -4.9197    -0.6640 H       
@<TRIPOS>BOND
   1    1    2 1
   2    1    5 1
   3    2    3 2
   4    2   10 1
   5    3    4 1
   6    4    5 ar
   7    4    9 ar
   8    5    6 ar
   9    6    7 ar
  10    6   21 1
  11    7    8 ar
  12    7   22 1
  13    8    9 ar
  14    8   23 1
  15    9   20 1
  16   10   11 1
  17   10   24 1
  18   10   25 1
  19   11   12 1
  20   11   26 1
  21   11   27 1
  22   12   13 3
  23   13   14 1
  24   14   15 ar
  25   14   19 ar
  26   15   16 ar
  27   15   28 1
  28   16   17 ar
  29   16   29 1
  30   17   18 ar
  31   17   30 1
  32   18   19 ar
  33   18   31 1

#	End of record

