#	Name: ASD02039352
#	Creating user name:	WinNT
#	Creation time:	15. 06. 2019 20:18

#	Modifying user name:	WinNT
#	Modification time:	15. 06. 2019 20:18

#	Program:	/corina/corina34_cracker 3.40 0067  02.08.2006

@<TRIPOS>MOLECULE
ASD02039352
  46   48    0    0    0
SMALL
NO_CHARGES


@<TRIPOS>ATOM
   1 C1            -0.2117     1.3526     0.3585 C.ar    
   2 C2             0.0543    -0.0047     0.3832 C.ar    
   3 C3            -0.9835    -0.9182     0.4082 C.ar    
   4 C4            -2.5673     0.8905     0.3962 C.ar    
   5 C5            -1.5158     1.8043     0.3648 C.ar    
   6 C6            -3.9704     1.3699     0.4026 C.ar    
   7 C7             0.9257     2.3409     0.3308 C.3     
   8 N8             1.3791     2.5251    -1.0500 N.am    
   9 C9             0.6892     3.4744    -1.9270 C.3     
  10 C10            2.4309     1.8213    -1.5135 C.2     
  11 C11            3.0582     0.7911    -0.6676 C.2     
  12 C12            4.0443    -0.0724    -1.0460 C.2     
  13 N13            2.7644     0.5319     0.6322 N.2     
  14 C14            3.5192    -0.4437     1.0480 C.2     
  15 N15            4.3262    -0.8430     0.0307 N.pl3   
  16 O16            2.8621     2.0366    -2.6301 O.2     
  17 C17            5.3224    -1.9156     0.0883 C.3     
  18 N18           -4.9729     0.5004     0.3188 N.ar    
  19 C19            1.6412     4.6148    -2.2934 C.3     
  20 C20            0.2385     2.7570    -3.2010 C.3     
  21 C21           -2.2942    -0.4787     0.4086 C.ar    
  22 F22           -3.3080    -1.3713     0.4325 F       
  23 C23           -4.2434     2.7342     0.5025 C.ar    
  24 N24           -5.4941     3.1556     0.5083 N.ar    
  25 C25           -6.4868     2.2870     0.4196 C.ar    
  26 C26           -6.2206     0.9318     0.3254 C.ar    
  27 H27            1.0768    -0.3523     0.3826 H       
  28 H28           -0.7697    -1.9767     0.4271 H       
  29 H29           -1.7210     2.8646     0.3554 H       
  30 H30            0.5871     3.2959     0.7326 H       
  31 H31            1.7496     1.9636     0.9365 H       
  32 H32           -0.1812     3.8795    -1.4108 H       
  33 H33            4.5104    -0.1303    -2.0185 H       
  34 H34            3.5079    -0.8656     2.0421 H       
  35 H35            4.8570    -2.8593    -0.1961 H       
  36 H36            6.1382    -1.6911    -0.5988 H       
  37 H37            5.7132    -1.9944     1.1028 H       
  38 H38            2.4399     4.2314    -2.9284 H       
  39 H39            1.0916     5.3891    -2.8286 H       
  40 H40            2.0703     5.0362    -1.3844 H       
  41 H41           -0.3544     1.8819    -2.9348 H       
  42 H42           -0.3647     3.4344    -3.8054 H       
  43 H43            1.1135     2.4435    -3.7704 H       
  44 H44           -3.4328     3.4442     0.5753 H       
  45 H45           -7.5090     2.6356     0.4250 H       
  46 H46           -7.0352     0.2264     0.2528 H       
@<TRIPOS>BOND
   1    1    2 ar
   2    1    7 1
   3    1    5 ar
   4    2    3 ar
   5    2   27 1
   6    3   21 ar
   7    3   28 1
   8    4    5 ar
   9    4    6 1
  10    4   21 ar
  11    5   29 1
  12    6   18 ar
  13    6   23 ar
  14    7    8 1
  15    7   30 1
  16    7   31 1
  17    8    9 1
  18    8   10 am
  19    9   20 1
  20    9   19 1
  21    9   32 1
  22   10   11 1
  23   10   16 2
  24   11   12 2
  25   11   13 1
  26   12   15 1
  27   12   33 1
  28   13   14 2
  29   14   15 1
  30   14   34 1
  31   15   17 1
  32   17   35 1
  33   17   36 1
  34   17   37 1
  35   18   26 ar
  36   19   38 1
  37   19   39 1
  38   19   40 1
  39   20   41 1
  40   20   42 1
  41   20   43 1
  42   21   22 1
  43   23   24 ar
  44   23   44 1
  45   24   25 ar
  46   25   26 ar
  47   25   45 1
  48   26   46 1

#	End of record

