#	Name: ASD04030003
#	Creating user name:	WinNT
#	Creation time:	15. 06. 2019 20:48

#	Modifying user name:	WinNT
#	Modification time:	15. 06. 2019 20:48

#	Program:	/corina/corina34_cracker 3.40 0067  02.08.2006

@<TRIPOS>MOLECULE
ASD04030003
  85   91    0    0    0
SMALL
NO_CHARGES


@<TRIPOS>ATOM
   1 N1             0.2216     0.9031    -0.3009 N.am    
   2 C2            -0.6292    -0.1665     0.2265 C.3     
   3 C3            -0.0544    -0.6946     1.5157 C.2     
   4 N4             0.5092     0.1528     2.3993 N.am    
   5 C5             1.1703    -0.3473     3.5209 C.ar    
   6 O6            -0.0989    -1.8821     1.7580 O.2     
   7 C7             1.1582     0.3729     4.7117 C.ar    
   8 C8             1.8092    -0.1166     5.8209 C.ar    
   9 C9             2.4842    -1.3413     5.7501 C.ar    
  10 C10            2.4936    -2.0623     4.5500 C.ar    
  11 C11            1.8351    -1.5677     3.4475 C.ar    
  12 C12            3.1811    -1.8679     6.9317 C.2     
  13 C13            3.8319    -3.0498     6.8612 C.2     
  14 C14            4.5043    -3.5580     8.0012 C.2     
  15 O15            4.4953    -2.9298     9.0429 O.2     
  16 C16           -2.0586     0.3633     0.4632 C.3     
  17 C17           -0.7457    -1.3037    -0.8035 C.3     
  18 C18           -2.8269    -0.0291    -0.8232 C.3     
  19 C19           -2.2421    -1.4256    -1.1581 C.3     
  20 O20            5.1542    -4.7383     7.9308 O.3     
  21 C21            1.5035     0.6454    -0.6276 C.2     
  22 C22            2.3255     1.6892    -1.2688 C.ar    
  23 C23            1.7546     2.9400    -1.5288 C.ar    
  24 C24            2.4612     3.9503    -2.1222 C.ar    
  25 C25            3.6570     1.4023    -1.5949 C.ar    
  26 N26            5.6837     2.4758    -2.6280 N.pl3   
  27 C27            4.3875     2.4170    -2.1969 C.ar    
  28 C28            3.7961     3.6812    -2.4648 C.ar    
  29 C29            4.7806     4.4707    -3.0780 C.2     
  30 C30            5.9105     3.7157    -3.1824 C.2     
  31 C31            4.6180     5.8964    -3.5385 C.3     
  32 C32            7.1795     4.1506    -3.8027 C.ar    
  33 C33            3.5051     5.9701    -4.5859 C.3     
  34 C34            3.3399     7.4176    -5.0535 C.3     
  35 C35            2.9753     8.3010    -3.8587 C.3     
  36 C36            4.0882     8.2272    -2.8114 C.3     
  37 C37            4.2534     6.7798    -2.3438 C.3     
  38 O38            1.9825    -0.4476    -0.3940 O.2     
  39 C39            7.1143     4.9881    -4.9219 C.ar    
  40 C40            8.2687     5.3905    -5.5572 C.ar    
  41 C41            9.4993     4.9617    -5.0903 C.ar    
  42 C42            9.5774     4.1479    -3.9804 C.ar    
  43 C43            8.4211     3.7465    -3.3097 C.ar    
  44 C44            6.7007     1.4210    -2.5138 C.3     
  45 N45            8.5764     3.0117    -2.1478 N.am    
  46 C46            7.8583     1.9751    -1.7253 C.2     
  47 O47            8.1461     1.4569    -0.6672 O.2     
  48 H48           -0.1388     1.7960    -0.4187 H       
  49 H49            0.4550     1.1105     2.2552 H       
  50 H50            0.6376     1.3176     4.7653 H       
  51 H51            1.7996     0.4431     6.7445 H       
  52 H52            3.0130    -3.0074     4.4909 H       
  53 H53            1.8381    -2.1253     2.5226 H       
  54 H54            3.1732    -1.3102     7.8565 H       
  55 H55            3.8398    -3.6075     5.9363 H       
  56 H56           -2.5038    -0.1165     1.3348 H       
  57 H57           -2.0485     1.4463     0.5861 H       
  58 H58           -0.1692    -1.0597    -1.6958 H       
  59 H59           -0.3872    -2.2377    -0.3707 H       
  60 H60           -3.8974    -0.0946    -0.6289 H       
  61 H61           -2.6216     0.6782    -1.6267 H       
  62 H62           -2.3661    -1.6477    -2.2180 H       
  63 H63           -2.7173    -2.1938    -0.5482 H       
  64 H64            5.5818    -5.0018     8.7571 H       
  65 H65            0.7249     3.1131    -1.2530 H       
  66 H66            2.0117     4.9124    -2.3188 H       
  67 H67            4.0946     0.4370    -1.3873 H       
  68 H68            5.5530     6.2456    -3.9767 H       
  69 H69            3.7648     5.3407    -5.4370 H       
  70 H70            2.5701     5.6210    -4.1477 H       
  71 H71            4.2749     7.7667    -5.4916 H       
  72 H72            2.5471     7.4701    -5.7996 H       
  73 H73            2.8577     9.3322    -4.1918 H       
  74 H74            2.0403     7.9518    -3.4206 H       
  75 H75            5.0232     8.5764    -3.2495 H       
  76 H76            3.8285     8.8566    -1.9602 H       
  77 H77            3.3184     6.4306    -1.9056 H       
  78 H78            5.0462     6.7273    -1.5977 H       
  79 H79            6.1546     5.3202    -5.2896 H       
  80 H80            8.2136     6.0394    -6.4187 H       
  81 H81           10.4026     5.2659    -5.5982 H       
  82 H82           10.5428     3.8176    -3.6265 H       
  83 H83            6.2809     0.5589    -1.9955 H       
  84 H84            7.0388     1.1260    -3.5071 H       
  85 H85            9.3025     3.2879    -1.5668 H       
@<TRIPOS>BOND
   1    1    2 1
   2    1   21 am
   3    1   48 1
   4    2    3 1
   5    2   16 1
   6    2   17 1
   7    3    4 am
   8    3    6 2
   9    4    5 1
  10    4   49 1
  11    5    7 ar
  12    5   11 ar
  13    7    8 ar
  14    7   50 1
  15    8    9 ar
  16    8   51 1
  17    9   10 ar
  18    9   12 1
  19   10   11 ar
  20   10   52 1
  21   11   53 1
  22   12   13 2
  23   12   54 1
  24   13   14 1
  25   13   55 1
  26   14   15 2
  27   14   20 1
  28   16   18 1
  29   16   56 1
  30   16   57 1
  31   17   19 1
  32   17   58 1
  33   17   59 1
  34   18   19 1
  35   18   60 1
  36   18   61 1
  37   19   62 1
  38   19   63 1
  39   20   64 1
  40   21   22 1
  41   21   38 2
  42   22   23 ar
  43   22   25 ar
  44   23   24 ar
  45   23   65 1
  46   24   28 ar
  47   24   66 1
  48   25   27 ar
  49   25   67 1
  50   26   27 1
  51   26   30 1
  52   26   44 1
  53   27   28 ar
  54   28   29 1
  55   29   30 2
  56   29   31 1
  57   30   32 1
  58   31   33 1
  59   31   37 1
  60   31   68 1
  61   32   39 ar
  62   32   43 ar
  63   33   34 1
  64   33   69 1
  65   33   70 1
  66   34   35 1
  67   34   71 1
  68   34   72 1
  69   35   36 1
  70   35   73 1
  71   35   74 1
  72   36   37 1
  73   36   75 1
  74   36   76 1
  75   37   77 1
  76   37   78 1
  77   39   40 ar
  78   39   79 1
  79   40   41 ar
  80   40   80 1
  81   41   42 ar
  82   41   81 1
  83   42   43 ar
  84   42   82 1
  85   43   45 1
  86   44   46 1
  87   44   83 1
  88   44   84 1
  89   45   46 am
  90   45   85 1
  91   46   47 2

#	End of record

