#	Name: ASD01150836
#	Creating user name:	WinNT
#	Creation time:	15. 06. 2019 19:05

#	Modifying user name:	WinNT
#	Modification time:	15. 06. 2019 19:05

#	Program:	/corina/corina34_cracker 3.40 0067  02.08.2006

@<TRIPOS>MOLECULE
ASD01150836
  62   64    0    0    0
SMALL
NO_CHARGES


@<TRIPOS>ATOM
   1 C1             1.0839     1.4361     0.1374 C.2     
   2 N2             0.8504     0.1428     0.1534 N.2     
   3 C3             1.9767    -0.5288    -0.1048 C.2     
   4 C4             2.9891     0.4020    -0.2967 C.2     
   5 N5             2.3952     1.6542    -0.1370 N.pl3   
   6 C6             4.3428     0.1356    -0.5919 C.2     
   7 O7             4.7267    -1.0145    -0.7035 O.2     
   8 O8             5.2127     1.1561    -0.7505 O.3     
   9 N9             2.1107    -1.9116    -0.1692 N.am    
  10 C10            1.0396    -2.7029     0.0388 C.2     
  11 C11            1.1849    -4.2012    -0.0310 C.3     
  12 C12            1.5920    -4.7387     1.3424 C.3     
  13 O13           -0.0410    -2.2091     0.2821 O.2     
  14 C14           -0.1291    -4.8147    -0.4412 C.ar    
  15 C15           -1.0049    -4.1030    -1.2396 C.ar    
  16 C16           -2.2101    -4.6657    -1.6158 C.ar    
  17 C17           -2.5394    -5.9403    -1.1940 C.ar    
  18 C18           -1.6633    -6.6523    -0.3964 C.ar    
  19 C19           -0.4561    -6.0913    -0.0238 C.ar    
  20 O20            2.1883    -4.5383    -0.9910 O.3     
  21 C21            1.9039    -4.0802    -2.3143 C.3     
  22 F22            0.5362    -4.5634     2.2435 F       
  23 F23            1.8955    -6.1004     1.2390 F       
  24 F24            2.7164    -4.0437     1.8006 F       
  25 O25            0.1607     2.3993     0.3546 O.3     
  26 C26           -1.1752     1.9687     0.6232 C.3     
  27 C27            3.0308     2.8994    -0.2409 C.ar    
  28 C28            3.1336     3.7223     0.8726 C.ar    
  29 C29            3.7606     4.9485     0.7684 C.ar    
  30 C30            4.2865     5.3573    -0.4457 C.ar    
  31 C31            4.1845     4.5381    -1.5575 C.ar    
  32 C32            3.5633     3.3087    -1.4559 C.ar    
  33 F33            4.8994     6.5571    -0.5457 F       
  34 C34            6.5677     0.8133    -1.0480 C.3     
  35 C35            6.6181     0.0227    -2.3570 C.3     
  36 C36            7.3973     2.0908    -1.1914 C.3     
  37 C37            7.1384    -0.0408     0.0859 C.3     
  38 H38            2.9750    -2.3066    -0.3638 H       
  39 H39           -0.7476    -3.1072    -1.5691 H       
  40 H40           -2.8947    -4.1094    -2.2389 H       
  41 H41           -3.4814    -6.3796    -1.4874 H       
  42 H42           -1.9207    -7.6480    -0.0667 H       
  43 H43            0.2301    -6.6490     0.5963 H       
  44 H44            0.9684    -4.5214    -2.6584 H       
  45 H45            1.8138    -2.9939    -2.3112 H       
  46 H46            2.7125    -4.3757    -2.9828 H       
  47 H47           -1.1835     1.3476     1.5189 H       
  48 H48           -1.8131     2.8388     0.7784 H       
  49 H49           -1.5478     1.3912    -0.2228 H       
  50 H50            2.7232     3.4040     1.8195 H       
  51 H51            3.8404     5.5891     1.6342 H       
  52 H52            4.5950     4.8588    -2.5036 H       
  53 H53            3.4879     2.6682    -2.3222 H       
  54 H54            6.2116     0.6312    -3.1648 H       
  55 H55            7.6517    -0.2388    -2.5839 H       
  56 H56            6.0271    -0.8874    -2.2548 H       
  57 H57            7.3613     2.6540    -0.2589 H       
  58 H58            8.4308     1.8293    -1.4183 H       
  59 H59            6.9907     2.6992    -1.9993 H       
  60 H60            6.5473    -0.9509     0.1881 H       
  61 H61            8.1719    -0.3023    -0.1410 H       
  62 H62            7.1024     0.5224     1.0184 H       
@<TRIPOS>BOND
   1    1    2 2
   2    1    5 1
   3    1   25 1
   4    2    3 1
   5    3    4 2
   6    3    9 1
   7    4    5 1
   8    4    6 1
   9    5   27 1
  10    6    7 2
  11    6    8 1
  12    8   34 1
  13    9   10 am
  14    9   38 1
  15   10   11 1
  16   10   13 2
  17   11   12 1
  18   11   14 1
  19   11   20 1
  20   12   22 1
  21   12   23 1
  22   12   24 1
  23   14   15 ar
  24   14   19 ar
  25   15   16 ar
  26   15   39 1
  27   16   17 ar
  28   16   40 1
  29   17   18 ar
  30   17   41 1
  31   18   19 ar
  32   18   42 1
  33   19   43 1
  34   20   21 1
  35   21   44 1
  36   21   45 1
  37   21   46 1
  38   25   26 1
  39   26   47 1
  40   26   48 1
  41   26   49 1
  42   27   28 ar
  43   27   32 ar
  44   28   29 ar
  45   28   50 1
  46   29   30 ar
  47   29   51 1
  48   30   31 ar
  49   30   33 1
  50   31   32 ar
  51   31   52 1
  52   32   53 1
  53   34   35 1
  54   34   37 1
  55   34   36 1
  56   35   54 1
  57   35   55 1
  58   35   56 1
  59   36   57 1
  60   36   58 1
  61   36   59 1
  62   37   60 1
  63   37   61 1
  64   37   62 1

#	End of record

