#	Name: ASD01320024
#	Creating user name:	WinNT
#	Creation time:	15. 06. 2019 19:15

#	Modifying user name:	WinNT
#	Modification time:	15. 06. 2019 19:15

#	Program:	/corina/corina34_cracker 3.40 0067  02.08.2006

@<TRIPOS>MOLECULE
ASD01320024
  50   52    0    0    0
SMALL
NO_CHARGES


@<TRIPOS>ATOM
   1 C1            -0.0098     0.9608    -0.4017 C.ar    
   2 C2            -0.0821    -0.4235    -0.5030 C.ar    
   3 C3            -1.2992    -1.0669    -0.4693 C.ar    
   4 C4            -2.4699    -0.3268    -0.3325 C.ar    
   5 C5            -2.3945     1.0762    -0.2299 C.ar    
   6 C6            -1.1446     1.7077    -0.2615 C.ar    
   7 N7            -3.7994    -0.6726    -0.2676 N.pl3   
   8 C8            -4.5518     0.4775    -0.1274 C.2     
   9 C9            -3.7217     1.5528    -0.1019 C.2     
  10 C10           -6.0178     0.5297    -0.0231 C.2     
  11 N11           -6.7371    -0.6094    -0.0619 N.am    
  12 C12           -8.1975    -0.5574     0.0419 C.3     
  13 C13           -8.6030    -0.5244     1.5168 C.3     
  14 C14           -8.0317     0.7091     2.1674 C.2     
  15 N15           -8.6406     1.9004     2.0044 N.am    
  16 C16           -8.1422     3.0809     2.7144 C.3     
  17 Cl17           1.5373     1.7470    -0.4464 Cl      
  18 O18           -6.5812     1.6010     0.0981 O.2     
  19 O19           -7.0241     0.6297     2.8377 O.2     
  20 C20           -9.8008     2.0147     1.1172 C.3     
  21 O21           -8.0984    -1.6877     2.1758 O.3     
  22 C22           -8.8006    -1.7952    -0.6252 C.3     
  23 C23           -8.5046    -1.7641    -2.1025 C.ar    
  24 C24           -7.3504    -2.3492    -2.5887 C.ar    
  25 C25           -7.0788    -2.3206    -3.9438 C.ar    
  26 C26           -7.9617    -1.7073    -4.8128 C.ar    
  27 C27           -9.1163    -1.1229    -4.3268 C.ar    
  28 C28           -9.3900    -1.1553    -2.9722 C.ar    
  29 H29            0.8249    -1.0001    -0.6096 H       
  30 H30           -1.3451    -2.1430    -0.5492 H       
  31 H31           -1.0790     2.7828    -0.1834 H       
  32 H32           -4.1510    -1.5755    -0.3127 H       
  33 H33           -4.0205     2.5857    -0.0016 H       
  34 H34           -6.2878    -1.4637    -0.1585 H       
  35 H35           -8.5654     0.3395    -0.4562 H       
  36 H36           -9.6901    -0.5057     1.5944 H       
  37 H37           -7.3946     3.5847     2.1017 H       
  38 H38           -8.9696     3.7625     2.9116 H       
  39 H39           -7.6915     2.7739     3.6582 H       
  40 H40          -10.7159     1.9179     1.7015 H       
  41 H41           -9.7861     2.9863     0.6233 H       
  42 H42           -9.7635     1.2251     0.3668 H       
  43 H43           -7.1353    -1.7696     2.1465 H       
  44 H44           -8.3653    -2.6930    -0.1863 H       
  45 H45           -9.8796    -1.8017    -0.4709 H       
  46 H46           -6.6606    -2.8284    -1.9097 H       
  47 H47           -6.1767    -2.7772    -4.3235 H       
  48 H48           -7.7492    -1.6843    -5.8715 H       
  49 H49           -9.8059    -0.6434    -5.0057 H       
  50 H50          -10.2921    -0.6988    -2.5925 H       
@<TRIPOS>BOND
   1    1    2 ar
   2    1   17 1
   3    1    6 ar
   4    2    3 ar
   5    2   29 1
   6    3    4 ar
   7    3   30 1
   8    4    5 ar
   9    4    7 1
  10    5    6 ar
  11    5    9 1
  12    6   31 1
  13    7    8 1
  14    7   32 1
  15    8    9 2
  16    8   10 1
  17    9   33 1
  18   10   11 am
  19   10   18 2
  20   11   12 1
  21   11   34 1
  22   12   13 1
  23   12   22 1
  24   12   35 1
  25   13   14 1
  26   13   21 1
  27   13   36 1
  28   14   15 am
  29   14   19 2
  30   15   16 1
  31   15   20 1
  32   16   37 1
  33   16   38 1
  34   16   39 1
  35   20   40 1
  36   20   41 1
  37   20   42 1
  38   21   43 1
  39   22   23 1
  40   22   44 1
  41   22   45 1
  42   23   24 ar
  43   23   28 ar
  44   24   25 ar
  45   24   46 1
  46   25   26 ar
  47   25   47 1
  48   26   27 ar
  49   26   48 1
  50   27   28 ar
  51   27   49 1
  52   28   50 1

#	End of record

