#	Name: ASD01915535
#	Creating user name:	WinNT
#	Creation time:	15. 06. 2019 20:05

#	Modifying user name:	WinNT
#	Modification time:	15. 06. 2019 20:05

#	Program:	/corina/corina34_cracker 3.40 0067  02.08.2006

@<TRIPOS>MOLECULE
ASD01915535
  46   49    0    0    0
SMALL
NO_CHARGES


@<TRIPOS>ATOM
   1 C1            -0.0043     1.4631     0.2176 C.2     
   2 N2             0.0615     0.1099    -0.0288 N.pl3   
   3 C3            -1.1510    -0.6743    -0.2923 C.3     
   4 C4            -2.3298    -0.0462     0.4494 C.3     
   5 N5            -2.4043     1.3988     0.2636 N.am    
   6 C6            -1.2917     2.1721     0.2677 C.2     
   7 C7             1.2784     1.9004     0.3937 C.2     
   8 C8             2.0745     0.7558     0.2522 C.2     
   9 N9             1.2813    -0.2615     0.0091 N.2     
  10 C10            3.5767     0.7023     0.3601 C.3     
  11 O11            4.0816     2.0110     0.6325 O.3     
  12 C12            5.4286     2.1384     0.7605 C.ar    
  13 C13           -3.6482     1.9975     0.0773 C.ar    
  14 O14           -1.3543     3.3860     0.3109 O.2     
  15 C15            5.9871     3.3805     1.0253 C.ar    
  16 C16            6.2470     1.0256     0.6322 C.ar    
  17 C17            7.6159     1.1577     0.7627 C.ar    
  18 C18            8.1705     2.3976     1.0209 C.ar    
  19 C19            7.3565     3.5073     1.1549 C.ar    
  20 C20           -4.8069     1.2635     0.3043 C.ar    
  21 C21           -6.0361     1.8706     0.1158 C.ar    
  22 C22           -6.0639     3.1962    -0.2949 C.ar    
  23 C23           -4.8734     3.8652    -0.5017 C.ar    
  24 N24           -3.7163     3.2620    -0.3092 N.ar    
  25 C25           -4.8968     5.3044    -0.9481 C.3     
  26 C26           -4.0780     6.1538     0.0260 C.3     
  27 H27           -1.3556    -0.6791    -1.3629 H       
  28 H28           -1.0056    -1.6970     0.0555 H       
  29 H29           -3.2540    -0.4961     0.0868 H       
  30 H30           -2.2304    -0.2598     1.5136 H       
  31 H31            1.6072     2.9088     0.5971 H       
  32 H32            3.8591     0.0283     1.1688 H       
  33 H33            3.9957     0.3393    -0.5784 H       
  34 H34            5.3517     4.2475     1.1296 H       
  35 H35            5.8143     0.0568     0.4309 H       
  36 H36            8.2535     0.2916     0.6633 H       
  37 H37            9.2410     2.4988     1.1226 H       
  38 H38            7.7921     4.4748     1.3562 H       
  39 H39           -4.7484     0.2332     0.6231 H       
  40 H40           -6.9530     1.3253     0.2841 H       
  41 H41           -7.0067     3.6992    -0.4514 H       
  42 H42           -4.4677     5.3820    -1.9471 H       
  43 H43           -5.9261     5.6626    -0.9660 H       
  44 H44           -4.0949     7.1948    -0.2968 H       
  45 H45           -4.5071     6.0763     1.0250 H       
  46 H46           -3.0487     5.7956     0.0439 H       
@<TRIPOS>BOND
   1    1    2 1
   2    1    7 2
   3    1    6 1
   4    2    3 1
   5    2    9 1
   6    3    4 1
   7    3   27 1
   8    3   28 1
   9    4    5 1
  10    4   29 1
  11    4   30 1
  12    5    6 am
  13    5   13 1
  14    6   14 2
  15    7    8 1
  16    7   31 1
  17    8    9 2
  18    8   10 1
  19   10   11 1
  20   10   32 1
  21   10   33 1
  22   11   12 1
  23   12   15 ar
  24   12   16 ar
  25   13   20 ar
  26   13   24 ar
  27   15   19 ar
  28   15   34 1
  29   16   17 ar
  30   16   35 1
  31   17   18 ar
  32   17   36 1
  33   18   19 ar
  34   18   37 1
  35   19   38 1
  36   20   21 ar
  37   20   39 1
  38   21   22 ar
  39   21   40 1
  40   22   23 ar
  41   22   41 1
  42   23   24 ar
  43   23   25 1
  44   25   26 1
  45   25   42 1
  46   25   43 1
  47   26   44 1
  48   26   45 1
  49   26   46 1

#	End of record

