#	Name: ASD00843521
#	Creating user name:	WinNT
#	Creation time:	15. 06. 2019 18:47

#	Modifying user name:	WinNT
#	Modification time:	15. 06. 2019 18:47

#	Program:	/corina/corina34_cracker 3.40 0067  02.08.2006

@<TRIPOS>MOLECULE
ASD00843521
  88   93    0    0    0
SMALL
NO_CHARGES


@<TRIPOS>ATOM
   1 F1             5.5635    -2.4347    -2.0440 F       
   2 N2             0.7675     1.0304    -0.2479 N.ar    
   3 C3             0.9572    -0.2494    -0.5218 C.ar    
   4 C4             0.8517    -1.2100     0.4763 C.ar    
   5 C5             0.5447    -0.8108     1.7651 C.ar    
   6 C6             0.3531     0.5420     2.0113 C.ar    
   7 C7             0.4736     1.4415     0.9711 C.ar    
   8 C8             1.0682    -2.6673     0.1594 C.3     
   9 C9             0.7614    -3.5241     1.3690 C.2     
  10 C10            0.2035    -3.0900    -1.0299 C.3     
  11 C11           -1.2383    -2.7550    -0.7469 C.2     
  12 N12           -2.2006    -3.1360    -1.6102 N.am    
  13 O13           -1.5326    -2.1426     0.2577 O.2     
  14 C14           -3.5954    -2.7212    -1.4072 C.3     
  15 C15           -4.4863    -3.9674    -1.4129 C.3     
  16 C16           -4.2462    -4.7553    -2.7028 C.3     
  17 C17           -2.7849    -5.2059    -2.7628 C.3     
  18 C18           -1.8738    -3.9691    -2.7755 C.3     
  19 N19           -5.1231    -5.9336    -2.7269 N.3     
  20 C20           -5.0065    -6.6508    -4.0042 C.3     
  21 C21           -5.8727    -7.9118    -3.9591 C.3     
  22 N22           -7.2685    -7.5350    -3.6955 N.3     
  23 C23           -7.3851    -6.8178    -2.4181 C.3     
  24 C24           -6.5189    -5.5568    -2.4632 C.3     
  25 C25           -8.1454    -8.7134    -3.7196 C.3     
  26 O26           -0.3074    -3.6136     1.9354 O.2     
  27 N27            1.8943    -4.1671     1.6975 N.am    
  28 C28            2.5291    -2.9367    -0.1221 C.ar    
  29 C29            2.9516    -3.8453     0.8429 C.ar    
  30 C30            3.3961    -2.4655    -1.0832 C.ar    
  31 C31            4.7117    -2.8948    -1.1016 C.ar    
  32 C32            5.1542    -3.8081    -0.1393 C.ar    
  33 C33            4.2712    -4.2815     0.8309 C.ar    
  34 C34            1.6340    -6.8264     2.3568 C.ar    
  35 C35            0.3560    -7.1022     1.8935 C.ar    
  36 C36            2.6036    -7.8104     2.3328 C.ar    
  37 C37            2.3011    -9.0688     1.8470 C.ar    
  38 C38            1.0278    -9.3463     1.3845 C.ar    
  39 C39            0.0548    -8.3662     1.4068 C.ar    
  40 H40            0.7939   -10.3302     1.0055 H       
  41 O41           -0.5995    -6.1362     1.9165 O.3     
  42 C42           -1.8930    -6.4912     1.4236 C.3     
  43 C43            6.5137    -4.2579    -0.1506 C.1     
  44 N44            7.5921    -4.6146    -0.1595 N.1     
  45 S45            2.0226    -5.2204     2.9688 S.o2    
  46 O46            3.3970    -5.2497     3.3285 O.2     
  47 O47            0.9878    -4.8772     3.8803 O.2     
  48 O48            1.2573    -0.6280    -1.7896 O.3     
  49 C49            1.2998     0.4004    -2.7809 C.3     
  50 C50            1.7528    -0.1957    -4.1152 C.3     
  51 F51            2.9878    -0.8311    -3.9467 F       
  52 F52            0.8058    -1.1264    -4.5557 F       
  53 H53            0.4558    -1.5351     2.5613 H       
  54 H54            0.1119     0.8870     3.0060 H       
  55 H55            0.3259     2.4950     1.1574 H       
  56 H56            0.5311    -2.5594    -1.9240 H       
  57 H57            0.3028    -4.1639    -1.1879 H       
  58 H58           -3.6887    -2.2096    -0.4492 H       
  59 H59           -3.8983    -2.0517    -2.2123 H       
  60 H60           -4.2426    -4.5927    -0.5540 H       
  61 H61           -5.5326    -3.6668    -1.3596 H       
  62 H62           -4.4663    -4.1214    -3.5618 H       
  63 H63           -2.5573    -5.8195    -1.8912 H       
  64 H64           -2.6203    -5.7869    -3.6703 H       
  65 H65           -2.0377    -3.4039    -3.6930 H       
  66 H66           -0.8314    -4.2825    -2.7183 H       
  67 H67           -5.3448    -6.0061    -4.8155 H       
  68 H68           -3.9661    -6.9300    -4.1709 H       
  69 H69           -5.8105    -8.4302    -4.9160 H       
  70 H70           -5.5173    -8.5689    -3.1654 H       
  71 H71           -8.4254    -6.5386    -2.2515 H       
  72 H72           -7.0468    -7.4625    -1.6069 H       
  73 H73           -6.5811    -5.0385    -1.5064 H       
  74 H74           -6.8743    -4.8997    -3.2569 H       
  75 H75           -7.8241    -9.4211    -2.9554 H       
  76 H76           -9.1723    -8.4062    -3.5216 H       
  77 H77           -8.0904    -9.1872    -4.6997 H       
  78 H78            3.0486    -1.7604    -1.8238 H       
  79 H79            4.6132    -4.9868     1.5738 H       
  80 H80            3.5988    -7.5961     2.6935 H       
  81 H81            3.0606    -9.8364     1.8284 H       
  82 H82           -0.9397    -8.5836     1.0461 H       
  83 H83           -1.8126    -6.7989     0.3810 H       
  84 H84           -2.2941    -7.3140     2.0154 H       
  85 H85           -2.5589    -5.6315     1.4984 H       
  86 H86            0.3070     0.8355    -2.8957 H       
  87 H87            2.0021     1.1745    -2.4716 H       
  88 H88            1.8513     0.5999    -4.8538 H       
@<TRIPOS>BOND
   1    1   31 1
   2    2    3 ar
   3    2    7 ar
   4    3    4 ar
   5    3   48 1
   6    4    5 ar
   7    4    8 1
   8    5    6 ar
   9    5   53 1
  10    6    7 ar
  11    6   54 1
  12    7   55 1
  13    8    9 1
  14    8   10 1
  15    8   28 1
  16    9   26 2
  17    9   27 am
  18   10   11 1
  19   10   56 1
  20   10   57 1
  21   11   12 am
  22   11   13 2
  23   12   14 1
  24   12   18 1
  25   14   15 1
  26   14   58 1
  27   14   59 1
  28   15   16 1
  29   15   60 1
  30   15   61 1
  31   16   17 1
  32   16   19 1
  33   16   62 1
  34   17   18 1
  35   17   63 1
  36   17   64 1
  37   18   65 1
  38   18   66 1
  39   19   20 1
  40   19   24 1
  41   20   21 1
  42   20   67 1
  43   20   68 1
  44   21   22 1
  45   21   69 1
  46   21   70 1
  47   22   23 1
  48   22   25 1
  49   23   24 1
  50   23   71 1
  51   23   72 1
  52   24   73 1
  53   24   74 1
  54   25   75 1
  55   25   76 1
  56   25   77 1
  57   27   45 am
  58   27   29 1
  59   28   29 ar
  60   28   30 ar
  61   29   33 ar
  62   30   31 ar
  63   30   78 1
  64   31   32 ar
  65   32   33 ar
  66   32   43 1
  67   33   79 1
  68   34   35 ar
  69   34   36 ar
  70   34   45 1
  71   35   41 1
  72   35   39 ar
  73   36   37 ar
  74   36   80 1
  75   37   38 ar
  76   37   81 1
  77   38   39 ar
  78   38   40 1
  79   39   82 1
  80   41   42 1
  81   42   83 1
  82   42   84 1
  83   42   85 1
  84   43   44 3
  85   45   46 2
  86   45   47 2
  87   48   49 1
  88   49   50 1
  89   49   86 1
  90   49   87 1
  91   50   51 1
  92   50   52 1
  93   50   88 1

#	End of record

