#	Name: ASD01150894
#	Creating user name:	WinNT
#	Creation time:	15. 06. 2019 19:05

#	Modifying user name:	WinNT
#	Modification time:	15. 06. 2019 19:05

#	Program:	/corina/corina34_cracker 3.40 0067  02.08.2006

@<TRIPOS>MOLECULE
ASD01150894
  57   60    0    0    0
SMALL
NO_CHARGES


@<TRIPOS>ATOM
   1 C1            -0.0179     1.4713     0.0101 C.ar    
   2 C2             0.0021    -0.0041     0.0020 C.2     
   3 N3            -1.1558    -0.6938     0.0094 N.am    
   4 O4             1.0631    -0.5976    -0.0113 O.2     
   5 C5            -1.1370    -2.0836     0.0017 C.2     
   6 N6            -0.0478    -2.8559    -0.0124 N.2     
   7 C7            -0.3959    -4.1265    -0.0155 C.2     
   8 N8            -1.7505    -4.2220    -0.0034 N.pl3   
   9 C9            -2.2479    -2.9178     0.0135 C.2     
  10 C10           -3.6019    -2.5267     0.0301 C.2     
  11 O11           -4.5752    -3.4630     0.0309 O.3     
  12 O12           -3.8941    -1.3446     0.0439 O.2     
  13 C13           -5.9253    -2.9952     0.0482 C.3     
  14 C14           -6.8795    -4.1912     0.0464 C.3     
  15 S15            0.7214    -5.4889    -0.0334 S.3     
  16 C16            2.2989    -4.6015    -0.0433 C.3     
  17 C17           -2.5385    -5.4570    -0.0030 C.3     
  18 C18           -2.7959    -5.8883     1.4178 C.ar    
  19 C19           -3.9231    -5.4421     2.0821 C.ar    
  20 C20           -4.1592    -5.8377     3.3854 C.ar    
  21 C21           -3.2684    -6.6798     4.0243 C.ar    
  22 C22           -2.1416    -7.1267     3.3597 C.ar    
  23 C23           -1.9078    -6.7346     2.0549 C.ar    
  24 C24            1.1775     2.1955     0.0026 C.ar    
  25 C25            1.0972     3.5912     0.0104 C.ar    
  26 C26           -0.1687     4.2124     0.0253 C.ar    
  27 N27           -1.2756     3.4760     0.0317 N.ar    
  28 C28           -1.2359     2.1646     0.0196 C.ar    
  29 Cl29           2.7138     1.3872    -0.0152 Cl      
  30 C30            2.0849     4.6656     0.0061 C.2     
  31 N31            1.4373     5.7952     0.0176 N.2     
  32 N32            0.0594     5.5595     0.0295 N.pl3   
  33 C33            3.5825     4.4981    -0.0085 C.3     
  34 C34           -0.9773     6.5945     0.0442 C.3     
  35 H35           -2.0023    -0.2203     0.0200 H       
  36 H36           -6.0918    -2.3990     0.9454 H       
  37 H37           -6.1090    -2.3826    -0.8344 H       
  38 H38           -6.7131    -4.7874    -0.8508 H       
  39 H39           -6.6959    -4.8038     0.9290 H       
  40 H40           -7.9094    -3.8344     0.0596 H       
  41 H41            3.1194    -5.3190    -0.0549 H       
  42 H42            2.3554    -3.9707    -0.9305 H       
  43 H43            2.3721    -3.9803     0.8494 H       
  44 H44           -3.4888    -5.2818    -0.5074 H       
  45 H45           -1.9884    -6.2392    -0.5262 H       
  46 H46           -4.6191    -4.7842     1.5830 H       
  47 H47           -5.0395    -5.4885     3.9047 H       
  48 H48           -3.4524    -6.9882     5.0428 H       
  49 H49           -1.4455    -7.7843     3.8590 H       
  50 H50           -1.0275    -7.0837     1.5357 H       
  51 H51           -2.1612     1.6076     0.0255 H       
  52 H52            3.9341     4.4623    -1.0396 H       
  53 H53            4.0472     5.3398     0.5049 H       
  54 H54            3.8493     3.5709     0.4988 H       
  55 H55           -1.2439     6.8563    -0.9797 H       
  56 H56           -1.8585     6.2187     0.5643 H       
  57 H57           -0.6010     7.4784     0.5591 H       
@<TRIPOS>BOND
   1    1    2 1
   2    1   24 ar
   3    1   28 ar
   4    2    3 am
   5    2    4 2
   6    3    5 1
   7    3   35 1
   8    5    6 1
   9    5    9 2
  10    6    7 2
  11    7    8 1
  12    7   15 1
  13    8    9 1
  14    8   17 1
  15    9   10 1
  16   10   11 1
  17   10   12 2
  18   11   13 1
  19   13   14 1
  20   13   36 1
  21   13   37 1
  22   14   38 1
  23   14   39 1
  24   14   40 1
  25   15   16 1
  26   16   41 1
  27   16   42 1
  28   16   43 1
  29   17   18 1
  30   17   44 1
  31   17   45 1
  32   18   19 ar
  33   18   23 ar
  34   19   20 ar
  35   19   46 1
  36   20   21 ar
  37   20   47 1
  38   21   22 ar
  39   21   48 1
  40   22   23 ar
  41   22   49 1
  42   23   50 1
  43   24   25 ar
  44   24   29 1
  45   25   26 ar
  46   25   30 1
  47   26   27 ar
  48   26   32 1
  49   27   28 ar
  50   28   51 1
  51   30   31 2
  52   30   33 1
  53   31   32 1
  54   32   34 1
  55   33   52 1
  56   33   53 1
  57   33   54 1
  58   34   55 1
  59   34   56 1
  60   34   57 1

#	End of record

