#	Name: ASD02120008
#	Creating user name:	WinNT
#	Creation time:	15. 06. 2019 20:18

#	Modifying user name:	WinNT
#	Modification time:	15. 06. 2019 20:18

#	Program:	/corina/corina34_cracker 3.40 0067  02.08.2006

@<TRIPOS>MOLECULE
ASD02120008
 223  227    0    0    0
SMALL
NO_CHARGES


@<TRIPOS>ATOM
   1 C1             1.2731    -2.5382   -10.3421 C.3     
   2 C2             0.7489    -3.7580    -9.6291 C.2     
   3 C3             2.3285    -1.8532    -9.4714 C.3     
   4 C4             1.9025    -2.9563   -11.6725 C.3     
   5 C5             2.2893    -0.3435    -9.7159 C.3     
   6 C6             3.6321     0.2727    -9.3179 C.3     
   7 C7             4.4993    -0.7891    -8.6387 C.3     
   8 C8             5.4885    -0.1091    -7.6902 C.3     
   9 C9             6.6780    -1.0385    -7.4412 C.3     
  10 C10            7.7711    -0.2779    -6.7358 C.2     
  11 C11            8.8384    -0.9078    -6.3108 C.2     
  12 C12            8.9733    -2.3929    -6.5272 C.3     
  13 O13            0.9605    -3.9183    -8.4457 O.2     
  14 C14            2.2313   -12.4504    -8.3617 C.3     
  15 C15            3.6504   -12.9218    -8.5475 C.2     
  16 O16            4.0773   -13.1616    -9.6571 O.2     
  17 N17           11.6005    -6.4080    -6.1323 N.3     
  18 C18           11.0149    -5.2511    -5.4418 C.3     
  19 C19           11.9620    -4.7727    -4.3716 C.2     
  20 O20           12.0501    -3.5884    -4.1252 O.2     
  21 C21           10.7724    -4.1250    -6.4488 C.3     
  22 C22            9.6861    -5.6581    -4.8020 C.3     
  23 C23           10.1680    -2.9180    -5.7284 C.3     
  24 C24            2.0951   -11.7547    -7.0058 C.3     
  25 C25            3.0398   -10.5822    -6.9457 C.2     
  26 C26            4.3795   -10.6318    -7.0146 C.2     
  27 N27            4.8982    -9.3687    -6.9259 N.pl3   
  28 C28            3.8790    -8.4523    -6.7944 C.ar    
  29 C29            2.6701    -9.1715    -6.8074 C.ar    
  30 C30            3.8467    -7.0671    -6.6686 C.ar    
  31 C31            2.6369    -6.4188    -6.5525 C.ar    
  32 C32            1.4468    -7.1337    -6.5596 C.ar    
  33 C33            1.4550    -8.4938    -6.6895 C.ar    
  34 C34           -8.9861     0.5419    -4.5679 C.2     
  35 C35           -9.8447    -0.1794    -3.5612 C.3     
  36 O36           -8.1655     1.3532    -4.1946 O.2     
  37 C37            6.2407   -13.1869    -9.1285 C.3     
  38 C38            5.8252   -13.5423    -7.6995 C.3     
  39 C39            6.7511   -12.8656    -6.7217 C.2     
  40 N40            4.4467   -13.0756    -7.4551 N.am    
  41 O41            6.3413   -12.4878    -5.6446 O.2     
  42 C42            8.0495   -11.5889    -4.8683 C.3     
  43 C43            8.9087   -12.0205    -6.0585 C.3     
  44 C44            9.5502   -10.8085    -6.6886 C.2     
  45 N45            8.0581   -12.6856    -7.0687 N.am    
  46 O46            9.3283   -10.5400    -7.8451 O.2     
  47 C47            8.9331   -10.9061    -3.8224 C.3     
  48 C48            8.1249   -10.6397    -2.5787 C.2     
  49 O49            6.9571   -10.9640    -2.5333 O.2     
  50 N50            8.6998   -10.0410    -1.5168 N.am    
  51 C51           10.2489    -8.2682    -7.6991 C.3     
  52 C52           11.0927    -8.7322    -6.5102 C.3     
  53 C53           10.4544    -9.9453    -5.8840 C.2     
  54 N54           11.1733    -7.6535    -5.5161 N.3     
  55 O55           10.6758   -10.2151    -4.7277 O.2     
  56 C56            9.1043    -7.3850    -7.1983 C.3     
  57 C57            8.3144    -6.8475    -8.3933 C.3     
  58 C58            8.1772    -8.2102    -6.3037 C.3     
  59 C59           14.7595    -6.2145    -2.4725 C.3     
  60 C60           13.6317    -5.1956    -2.6482 C.3     
  61 C61           12.8850    -5.0436    -1.3480 C.2     
  62 N62           12.7110    -5.6608    -3.6885 N.am    
  63 O63           11.7005    -5.2987    -1.2955 O.2     
  64 O64           14.2198    -7.4420    -1.9785 O.3     
  65 N65           13.5336    -4.6242    -0.2435 N.am    
  66 C66           -8.5359     2.4936    -6.7507 C.3     
  67 C67           -8.2956     0.9867    -6.8619 C.3     
  68 C68           -6.8438     0.6881    -6.5897 C.2     
  69 N69           -9.1302     0.2855    -5.8832 N.am    
  70 O70           -6.5023     0.2822    -5.4990 O.2     
  71 C71           -9.9802     2.8101    -7.1440 C.3     
  72 C72          -10.1800     4.3267    -7.1738 C.3     
  73 C73          -10.2701     2.2302    -8.5299 C.3     
  74 C74           -3.8558     1.7998    -6.6416 C.3     
  75 C75           -4.5135     0.5819    -7.2936 C.3     
  76 C76           -3.8135     0.2673    -8.5906 C.2     
  77 N77           -5.9248     0.8722    -7.5583 N.am    
  78 O78           -4.4327     0.2839    -9.6334 O.2     
  79 C79           -4.5665     2.1192    -5.3248 C.3     
  80 O80           -2.4792     1.5167    -6.3835 O.3     
  81 C81           -1.3727     0.9639   -10.5202 C.3     
  82 C82           -1.8191    -0.3384    -9.8526 C.3     
  83 C83           -0.6141    -1.2003    -9.5769 C.2     
  84 N84           -2.4995    -0.0325    -8.5918 N.am    
  85 O85           -0.3497    -1.5270    -8.4392 O.2     
  86 C86           -2.5849     1.7713   -10.9070 C.ar    
  87 C87           -3.1214     2.6824   -10.0165 C.ar    
  88 C88           -4.2334     3.4230   -10.3713 C.ar    
  89 C89           -4.8086     3.2529   -11.6168 C.ar    
  90 C90           -4.2715     2.3425   -12.5076 C.ar    
  91 C91           -3.1569     1.6050   -12.1544 C.ar    
  92 N92            0.1698    -1.6082   -10.5946 N.am    
  93 C93           -1.9731    -5.8967    -9.5998 C.3     
  94 C94           -0.4441    -5.8511    -9.5701 C.3     
  95 C95            0.1111    -7.1009   -10.2032 C.2     
  96 N96            0.0321    -4.6787   -10.3357 N.am    
  97 O97            0.5017    -7.0870   -11.3514 O.2     
  98 C98            1.9609    -9.0485   -10.9438 C.3     
  99 C99            0.7186    -9.4388   -10.1406 C.3     
 100 C100           1.0930   -10.4563    -9.0938 C.2     
 101 N101           0.1687    -8.2451    -9.4692 N.am    
 102 O102           0.6816   -10.3510    -7.9578 O.2     
 103 C103           2.5054   -10.2640   -11.6491 C.ar    
 104 C104           1.9204   -10.7003   -12.8235 C.ar    
 105 C105           2.4177   -11.8142   -13.4719 C.ar    
 106 C106           3.5048   -12.4952   -12.9437 C.ar    
 107 C107           4.0899   -12.0554   -11.7652 C.ar    
 108 C108           3.5925   -10.9376   -11.1236 C.ar    
 109 O109           3.9955   -13.5915   -13.5794 O.3     
 110 N110           1.9021   -11.4973    -9.4435 N.am    
 111 H111           2.1208    -2.0568    -8.4209 H       
 112 H112           3.3160    -2.2373    -9.7277 H       
 113 H113           1.1740    -3.5160   -12.2591 H       
 114 H114           2.2084    -2.0678   -12.2249 H       
 115 H115           2.7736    -3.5830   -11.4813 H       
 116 H116           2.1000    -0.1512   -10.7720 H       
 117 H117           1.4940     0.1009    -9.1175 H       
 118 H118           4.1406     0.6419   -10.2086 H       
 119 H119           3.4623     1.0991    -8.6277 H       
 120 H120           3.8634    -1.4703    -8.0733 H       
 121 H121           5.0482    -1.3488    -9.3960 H       
 122 H122           5.8410     0.8201    -8.1379 H       
 123 H123           4.9933     0.1086    -6.7438 H       
 124 H124           6.3605    -1.8769    -6.8213 H       
 125 H125           7.0524    -1.4126    -8.3941 H       
 126 H126           7.6749     0.7867    -6.5809 H       
 127 H127           9.6220    -0.3625    -5.8054 H       
 128 H128           8.0644    -2.8930    -6.1925 H       
 129 H129           9.1289    -2.5930    -7.5873 H       
 130 H130           1.5539   -13.3032    -8.4072 H       
 131 H131          11.3743    -6.3948    -7.1155 H       
 132 H132          11.7184    -3.8379    -6.9077 H       
 133 H133          10.0840    -4.4697    -7.2205 H       
 134 H134           9.4703    -6.6990    -5.0433 H       
 135 H135           9.7531    -5.5423    -3.7202 H       
 136 H136           8.8880    -5.0230    -5.1866 H       
 137 H137          10.9195    -2.1334    -5.6406 H       
 138 H138           9.8369    -3.2169    -4.7338 H       
 139 H139           1.0711   -11.4032    -6.8791 H       
 140 H140           2.3387   -12.4588    -6.2101 H       
 141 H141           4.9617   -11.5349    -7.1233 H       
 142 H142           5.8432    -9.1513    -6.9514 H       
 143 H143           4.7671    -6.5021    -6.6617 H       
 144 H144           2.6139    -5.3435    -6.4546 H       
 145 H145           0.5068    -6.6100    -6.4672 H       
 146 H146           0.5253    -9.0433    -6.6942 H       
 147 H147         -10.7568     0.3912    -3.3863 H       
 148 H148         -10.1017    -1.1670    -3.9441 H       
 149 H149          -9.2965    -0.2841    -2.6249 H       
 150 H150           7.2871   -13.4520    -9.2792 H       
 151 H151           5.6206   -13.7387    -9.8350 H       
 152 H152           6.1102   -12.1167    -9.2892 H       
 153 H153           5.8743   -14.6227    -7.5632 H       
 154 H154           4.1243   -12.8873    -6.5598 H       
 155 H155           7.2831   -10.8920    -5.2073 H       
 156 H156           7.5744   -12.4648    -4.4266 H       
 157 H157           9.6833   -12.7097    -5.7220 H       
 158 H158           8.4080   -12.9764    -7.9254 H       
 159 H159           9.7737   -11.5552    -3.5773 H       
 160 H160           9.3066    -9.9632    -4.2220 H       
 161 H161           9.6337    -9.7816    -1.5531 H       
 162 H162           8.1795    -9.8695    -0.7163 H       
 163 H163          10.8731    -7.6983    -8.3873 H       
 164 H164           9.8389    -9.1366    -8.2146 H       
 165 H165          12.0957    -8.9857    -6.8534 H       
 166 H166          11.7843    -7.9084    -4.7546 H       
 167 H167           9.5121    -6.5507    -6.6275 H       
 168 H168           7.9066    -7.6818    -8.9641 H       
 169 H169           7.4990    -6.2183    -8.0365 H       
 170 H170           8.9749    -6.2596    -9.0306 H       
 171 H171           7.9123    -9.1374    -6.8120 H       
 172 H172           8.6862    -8.4415    -5.3680 H       
 173 H173           7.2724    -7.6398    -6.0937 H       
 174 H174          15.2428    -6.3907    -3.4335 H       
 175 H175          15.4913    -5.8278    -1.7633 H       
 176 H176          14.0532    -4.2336    -2.9397 H       
 177 H177          12.6405    -6.6079    -3.8856 H       
 178 H178          14.8799    -8.1355    -1.8429 H       
 179 H179          14.4810    -4.4202    -0.2854 H       
 180 H180          13.0530    -4.5264     0.5934 H       
 181 H181          -8.3603     2.8147    -5.7239 H       
 182 H182          -7.8538     3.0206    -7.4179 H       
 183 H183          -8.5535     0.6509    -7.8663 H       
 184 H184          -9.7865    -0.3633    -6.1818 H       
 185 H185         -10.6603     2.3683    -6.4157 H       
 186 H186         -11.2288     4.5513    -7.3679 H       
 187 H187          -9.8897     4.7504    -6.2124 H       
 188 H188          -9.5639     4.7590    -7.9623 H       
 189 H189         -10.1278     1.1498    -8.5087 H       
 190 H190         -11.2991     2.4557    -8.8101 H       
 191 H191          -9.5901     2.6721    -9.2581 H       
 192 H192          -3.9312     2.6559    -7.3121 H       
 193 H193          -4.4381    -0.2742    -6.6231 H       
 194 H194          -6.1979     1.1968    -8.4306 H       
 195 H195          -4.4911     1.2632    -4.6543 H       
 196 H196          -4.0980     2.9869    -4.8603 H       
 197 H197          -5.6165     2.3352    -5.5217 H       
 198 H198          -2.3364     0.7647    -5.7925 H       
 199 H199          -0.7608     1.5378    -9.8242 H       
 200 H200          -0.7897     0.7338   -11.4120 H       
 201 H201          -2.5025    -0.8703   -10.5146 H       
 202 H202          -2.0044    -0.0458    -7.7578 H       
 203 H203          -2.6721     2.8153    -9.0435 H       
 204 H204          -4.6530     4.1343    -9.6753 H       
 205 H205          -5.6778     3.8310   -11.8937 H       
 206 H206          -4.7211     2.2093   -13.4805 H       
 207 H207          -2.7351     0.8964   -12.8518 H       
 208 H208           0.0033    -1.2859   -11.4942 H       
 209 H209          -2.3214    -6.7686    -9.0462 H       
 210 H210          -2.3725    -4.9920    -9.1415 H       
 211 H211          -2.3147    -5.9619   -10.6329 H       
 212 H212          -0.1006    -5.7779    -8.5383 H       
 213 H213          -0.1541    -4.5710   -11.2816 H       
 214 H214           1.6942    -8.2903   -11.6801 H       
 215 H215           2.7189    -8.6496   -10.2697 H       
 216 H216          -0.0318    -9.8595   -10.8099 H       
 217 H217          -0.1372    -8.2748    -8.5491 H       
 218 H218           1.0739   -10.1700   -13.2341 H       
 219 H219           1.9602   -12.1548   -14.3890 H       
 220 H220           4.9364   -12.5838   -11.3520 H       
 221 H221           4.0504   -10.5922   -10.2085 H       
 222 H222           4.6854   -13.3943   -14.2277 H       
 223 H223           2.2409   -11.6055   -10.3460 H       
@<TRIPOS>BOND
   1    1    2 1
   2    1    3 1
   3    1    4 1
   4    1   92 1
   5    2   13 2
   6    2   96 am
   7    3    5 1
   8    3  111 1
   9    3  112 1
  10    4  113 1
  11    4  114 1
  12    4  115 1
  13    5    6 1
  14    5  116 1
  15    5  117 1
  16    6    7 1
  17    6  118 1
  18    6  119 1
  19    7    8 1
  20    7  120 1
  21    7  121 1
  22    8    9 1
  23    8  122 1
  24    8  123 1
  25    9   10 1
  26    9  124 1
  27    9  125 1
  28   10   11 2
  29   10  126 1
  30   11   12 1
  31   11  127 1
  32   12   23 1
  33   12  128 1
  34   12  129 1
  35   14   15 1
  36   14   24 1
  37   14  110 1
  38   14  130 1
  39   15   16 2
  40   15   40 am
  41   17   18 1
  42   17   54 1
  43   17  131 1
  44   18   19 1
  45   18   21 1
  46   18   22 1
  47   19   20 2
  48   19   62 am
  49   21   23 1
  50   21  132 1
  51   21  133 1
  52   22  134 1
  53   22  135 1
  54   22  136 1
  55   23  137 1
  56   23  138 1
  57   24   25 1
  58   24  139 1
  59   24  140 1
  60   25   26 2
  61   25   29 1
  62   26   27 1
  63   26  141 1
  64   27   28 1
  65   27  142 1
  66   28   29 ar
  67   28   30 ar
  68   29   33 ar
  69   30   31 ar
  70   30  143 1
  71   31   32 ar
  72   31  144 1
  73   32   33 ar
  74   32  145 1
  75   33  146 1
  76   34   36 2
  77   34   69 am
  78   34   35 1
  79   35  147 1
  80   35  148 1
  81   35  149 1
  82   37   38 1
  83   37  150 1
  84   37  151 1
  85   37  152 1
  86   38   39 1
  87   38   40 1
  88   38  153 1
  89   39   41 2
  90   39   45 am
  91   40  154 1
  92   42   47 1
  93   42   43 1
  94   42  155 1
  95   42  156 1
  96   43   45 1
  97   43   44 1
  98   43  157 1
  99   44   46 2
 100   44   53 1
 101   45  158 1
 102   47   48 1
 103   47  159 1
 104   47  160 1
 105   48   49 2
 106   48   50 am
 107   50  161 1
 108   50  162 1
 109   51   56 1
 110   51   52 1
 111   51  163 1
 112   51  164 1
 113   52   54 1
 114   52   53 1
 115   52  165 1
 116   53   55 2
 117   54  166 1
 118   56   57 1
 119   56   58 1
 120   56  167 1
 121   57  168 1
 122   57  169 1
 123   57  170 1
 124   58  171 1
 125   58  172 1
 126   58  173 1
 127   59   64 1
 128   59   60 1
 129   59  174 1
 130   59  175 1
 131   60   62 1
 132   60   61 1
 133   60  176 1
 134   61   63 2
 135   61   65 am
 136   62  177 1
 137   64  178 1
 138   65  179 1
 139   65  180 1
 140   66   71 1
 141   66   67 1
 142   66  181 1
 143   66  182 1
 144   67   69 1
 145   67   68 1
 146   67  183 1
 147   68   70 2
 148   68   77 am
 149   69  184 1
 150   71   72 1
 151   71   73 1
 152   71  185 1
 153   72  186 1
 154   72  187 1
 155   72  188 1
 156   73  189 1
 157   73  190 1
 158   73  191 1
 159   74   75 1
 160   74   79 1
 161   74   80 1
 162   74  192 1
 163   75   77 1
 164   75   76 1
 165   75  193 1
 166   76   78 2
 167   76   84 am
 168   77  194 1
 169   79  195 1
 170   79  196 1
 171   79  197 1
 172   80  198 1
 173   81   86 1
 174   81   82 1
 175   81  199 1
 176   81  200 1
 177   82   83 1
 178   82   84 1
 179   82  201 1
 180   83   85 2
 181   83   92 am
 182   84  202 1
 183   86   87 ar
 184   86   91 ar
 185   87   88 ar
 186   87  203 1
 187   88   89 ar
 188   88  204 1
 189   89   90 ar
 190   89  205 1
 191   90   91 ar
 192   90  206 1
 193   91  207 1
 194   92  208 1
 195   93   94 1
 196   93  209 1
 197   93  210 1
 198   93  211 1
 199   94   95 1
 200   94   96 1
 201   94  212 1
 202   95   97 2
 203   95  101 am
 204   96  213 1
 205   98  103 1
 206   98   99 1
 207   98  214 1
 208   98  215 1
 209   99  100 1
 210   99  101 1
 211   99  216 1
 212  100  102 2
 213  100  110 am
 214  101  217 1
 215  103  104 ar
 216  103  108 ar
 217  104  105 ar
 218  104  218 1
 219  105  106 ar
 220  105  219 1
 221  106  107 ar
 222  106  109 1
 223  107  108 ar
 224  107  220 1
 225  108  221 1
 226  109  222 1
 227  110  223 1

#	End of record

