#	Name: ASD06142001
#	Creating user name:	WinNT
#	Creation time:	15. 06. 2019 21:05

#	Modifying user name:	WinNT
#	Modification time:	15. 06. 2019 21:05

#	Program:	/corina/corina34_cracker 3.40 0067  02.08.2006

@<TRIPOS>MOLECULE
ASD06142001
  41   44    0    0    0
SMALL
NO_CHARGES


@<TRIPOS>ATOM
   1 C1            -0.0169     1.3931     0.0097 C.ar    
   2 C2             0.0021    -0.0041     0.0020 C.ar    
   3 C3            -1.1849    -0.7068     0.0101 C.ar    
   4 C4            -2.3928    -0.0320     0.0257 C.ar    
   5 C5            -2.4206     1.3519     0.0329 C.ar    
   6 C6            -1.2416     2.0688     0.0309 C.ar    
   7 Cl7           -1.2781     3.8044     0.0399 Cl      
   8 C8             1.2480     2.1515     0.0017 C.2     
   9 C9             1.5551     3.1746    -0.8437 C.2     
  10 C10            2.8463     3.6104    -0.5117 C.2     
  11 C11            3.2754     2.8225     0.5364 C.2     
  12 O12            2.2912     1.9508     0.8348 O.3     
  13 C13            4.5692     2.9197     1.2097 C.2     
  14 C14            4.8662     2.0802     2.2309 C.2     
  15 S15            3.8374     0.8026     2.9018 S.3     
  16 C16            5.0141     0.2867     4.1224 C.2     
  17 N17            6.0815     1.0847     3.9569 N.am    
  18 O18            6.0070     2.0382     2.9448 O.3     
  19 C19            7.2730     0.9539     4.7993 C.3     
  20 C20            8.0661    -0.2828     4.3724 C.3     
  21 O21            8.5939    -0.0906     3.0547 O.3     
  22 C22           10.0296    -0.1215     3.0919 C.3     
  23 C23           10.3839    -0.9465     4.3547 C.3     
  24 C24            9.2607    -0.4942     5.3272 C.3     
  25 S25            4.8286    -0.9675     5.2728 S.2     
  26 H26            0.9439    -0.5325    -0.0105 H       
  27 H27           -1.1714    -1.7867     0.0038 H       
  28 H28           -3.3187    -0.5879     0.0319 H       
  29 H29           -3.3672     1.8717     0.0444 H       
  30 H30            0.9234     3.5745    -1.6230 H       
  31 H31            3.3984     4.4087    -0.9854 H       
  32 H32            5.2884     3.6606     0.8932 H       
  33 H33            7.8959     1.8414     4.6878 H       
  34 H34            6.9714     0.8502     5.8416 H       
  35 H35            7.4193    -1.1601     4.3873 H       
  36 H36           10.4208    -0.6093     2.1992 H       
  37 H37           10.4276     0.8897     3.1767 H       
  38 H38           10.3232    -2.0163     4.1548 H       
  39 H39           11.3678    -0.6756     4.7376 H       
  40 H40            9.5299     0.4379     5.8240 H       
  41 H41            9.0413    -1.2743     6.0562 H       
@<TRIPOS>BOND
   1    1    2 ar
   2    1    8 1
   3    1    6 ar
   4    2    3 ar
   5    2   26 1
   6    3    4 ar
   7    3   27 1
   8    4    5 ar
   9    4   28 1
  10    5    6 ar
  11    5   29 1
  12    6    7 1
  13    8    9 2
  14    8   12 1
  15    9   10 1
  16    9   30 1
  17   10   11 2
  18   10   31 1
  19   11   12 1
  20   11   13 1
  21   13   14 2
  22   13   32 1
  23   14   15 1
  24   14   18 1
  25   15   16 1
  26   16   17 am
  27   16   25 2
  28   17   18 1
  29   17   19 1
  30   19   20 1
  31   19   33 1
  32   19   34 1
  33   20   21 1
  34   20   24 1
  35   20   35 1
  36   21   22 1
  37   22   23 1
  38   22   36 1
  39   22   37 1
  40   23   24 1
  41   23   38 1
  42   23   39 1
  43   24   40 1
  44   24   41 1

#	End of record

