#	Name: ASD04840011
#	Creating user name:	WinNT
#	Creation time:	15. 06. 2019 20:52

#	Modifying user name:	WinNT
#	Modification time:	15. 06. 2019 20:52

#	Program:	/corina/corina34_cracker 3.40 0067  02.08.2006

@<TRIPOS>MOLECULE
ASD04840011
  40   43    0    0    0
SMALL
NO_CHARGES


@<TRIPOS>ATOM
   1 O1            -0.0162     1.3433     0.0094 O.3     
   2 C2             0.0021    -0.0041     0.0020 C.2     
   3 O3             1.0625    -0.5972    -0.0113 O.2     
   4 C4            -1.2643    -0.7584     0.0101 C.ar    
   5 C5            -2.4860    -0.0805     0.0254 C.ar    
   6 C6            -3.6663    -0.7918     0.0323 C.ar    
   7 C7            -3.6479    -2.1768     0.0247 C.ar    
   8 C8            -2.4476    -2.8597     0.0100 C.ar    
   9 C9            -1.2502    -2.1606    -0.0035 C.ar    
  10 O10           -0.0705    -2.8300    -0.0179 O.3     
  11 C11           -0.1346    -4.2575    -0.0184 C.3     
  12 C12            1.2622    -4.8231    -0.0353 C.ar    
  13 C13            2.3456    -3.9546    -0.0473 C.ar    
  14 C14            3.6294    -4.4620    -0.0629 C.ar    
  15 Cl15           5.0066    -3.4052    -0.0776 Cl      
  16 C16            3.7901    -5.8584    -0.0660 C.ar    
  17 C17            2.6377    -6.6753    -0.0531 C.ar    
  18 N18            1.4270    -6.1272    -0.0330 N.ar    
  19 C19            2.8144    -8.1315    -0.0563 C.ar    
  20 C20            1.7195    -8.9974    -0.0445 C.ar    
  21 C21            1.9251   -10.3479    -0.0485 C.ar    
  22 C22            3.2127   -10.8702    -0.0642 C.ar    
  23 C23            4.3023   -10.0491    -0.0760 C.ar    
  24 C24            4.1255    -8.6583    -0.0723 C.ar    
  25 C25            5.2370    -7.7838    -0.0838 C.ar    
  26 C26            5.0754    -6.4448    -0.0821 C.ar    
  27 H27            0.8393     1.7940     0.0037 H       
  28 H28           -2.5053     0.9993     0.0321 H       
  29 H29           -4.6101    -0.2669     0.0442 H       
  30 H30           -4.5778    -2.7260     0.0306 H       
  31 H31           -2.4416    -3.9397     0.0045 H       
  32 H32           -0.6537    -4.5982     0.8775 H       
  33 H33           -0.6746    -4.5967    -0.9024 H       
  34 H34            2.1845    -2.8867    -0.0449 H       
  35 H35            0.7147    -8.6016    -0.0320 H       
  36 H36            1.0775   -11.0172    -0.0391 H       
  37 H37            3.3530   -11.9410    -0.0668 H       
  38 H38            5.2972   -10.4689    -0.0878 H       
  39 H39            6.2350    -8.1965    -0.0959 H       
  40 H40            5.9471    -5.8072    -0.0915 H       
@<TRIPOS>BOND
   1    1    2 1
   2    1   27 1
   3    2    3 2
   4    2    4 1
   5    4    5 ar
   6    4    9 ar
   7    5    6 ar
   8    5   28 1
   9    6    7 ar
  10    6   29 1
  11    7    8 ar
  12    7   30 1
  13    8    9 ar
  14    8   31 1
  15    9   10 1
  16   10   11 1
  17   11   12 1
  18   11   32 1
  19   11   33 1
  20   12   13 ar
  21   12   18 ar
  22   13   14 ar
  23   13   34 1
  24   14   15 1
  25   14   16 ar
  26   16   17 ar
  27   16   26 ar
  28   17   18 ar
  29   17   19 ar
  30   19   20 ar
  31   19   24 ar
  32   20   21 ar
  33   20   35 1
  34   21   22 ar
  35   21   36 1
  36   22   23 ar
  37   22   37 1
  38   23   24 ar
  39   23   38 1
  40   24   25 ar
  41   25   26 ar
  42   25   39 1
  43   26   40 1

#	End of record

