#	Name: ASD03730397
#	Creating user name:	WinNT
#	Creation time:	15. 06. 2019 20:44

#	Modifying user name:	WinNT
#	Modification time:	15. 06. 2019 20:44

#	Program:	/corina/corina34_cracker 3.40 0067  02.08.2006

@<TRIPOS>MOLECULE
ASD03730397
  55   60    0    0    0
SMALL
NO_CHARGES


@<TRIPOS>ATOM
   1 C1            -0.0180     1.4742     0.0101 C.2     
   2 C2             0.0021    -0.0041     0.0020 C.ar    
   3 C3             1.2184    -0.6885    -0.0133 C.ar    
   4 C4             1.2301    -2.0680    -0.0203 C.ar    
   5 C5             0.0396    -2.7730    -0.0127 C.ar    
   6 C6            -1.1695    -2.1007     0.0024 C.ar    
   7 C7            -1.1952    -0.7214     0.0154 C.ar    
   8 O8             1.0263     2.0963     0.0035 O.2     
   9 N9            -1.1942     2.1322     0.0193 N.am    
  10 C10           -1.2141     3.5970     0.0274 C.3     
  11 C11           -2.6633     4.0874     0.0369 C.3     
  12 F12           -3.3110     3.6059     1.1797 F       
  13 F13           -2.6823     5.4862     0.0446 F       
  14 F14           -3.3219     3.6183    -1.1048 F       
  15 C15            0.0601    -4.2798    -0.0215 C.3     
  16 O16           -2.0563    -1.5348     6.2775 O.3     
  17 C17           -2.2837    -1.6203     7.6967 C.3     
  18 O18           -2.7818    -2.9582     7.8836 O.3     
  19 C19           -2.2564    -3.6908     6.8579 C.ar    
  20 C20           -1.8113    -2.8150     5.8702 C.ar    
  21 C21           -2.1186    -5.0563     6.6848 C.ar    
  22 C22           -1.5385    -5.5652     5.5267 C.ar    
  23 C23           -1.1053    -4.6808     4.5435 C.ar    
  24 C24           -1.2356    -3.3185     4.7159 C.ar    
  25 O25           -1.2955    -6.8588     5.1692 O.3     
  26 C26           -0.5594    -5.5216     3.4206 C.3     
  27 C27           -1.0841    -6.9267     3.7458 C.3     
  28 N28            0.0802    -4.7759     1.3568 N.am    
  29 C29           -1.0278    -5.0465     2.0754 C.2     
  30 C30            0.9387    -5.4848     3.3560 C.ar    
  31 C31            1.9375    -5.7964     4.2513 C.ar    
  32 C32            3.2644    -5.6548     3.8860 C.ar    
  33 C33            3.5850    -5.1990     2.6202 C.ar    
  34 C34            2.5881    -4.8847     1.7202 C.ar    
  35 C35            1.2497    -5.0246     2.0792 C.ar    
  36 O36           -2.1775    -4.9294     1.7074 O.2     
  37 H37            2.1484    -0.1393    -0.0199 H       
  38 H38            2.1706    -2.5988    -0.0321 H       
  39 H39           -2.0953    -2.6569     0.0083 H       
  40 H40           -2.1396    -0.1978     0.0318 H       
  41 H41           -2.0276     1.6358     0.0206 H       
  42 H42           -0.7010     3.9625     0.9169 H       
  43 H43           -0.7094     3.9721    -0.8630 H       
  44 H44           -0.8299    -4.6523    -0.5288 H       
  45 H45            0.9498    -4.6281    -0.5460 H       
  46 H46           -1.3511    -1.4791     8.2431 H       
  47 H47           -3.0272    -0.8875     8.0102 H       
  48 H48           -2.4636    -5.7319     7.4534 H       
  49 H49           -0.8881    -2.6428     3.9484 H       
  50 H50           -0.3397    -7.6843     3.5007 H       
  51 H51           -2.0214    -7.1203     3.2241 H       
  52 H52            1.6849    -6.1520     5.2393 H       
  53 H53            4.0481    -5.9000     4.5876 H       
  54 H54            4.6208    -5.0884     2.3351 H       
  55 H55            2.8463    -4.5288     0.7338 H       
@<TRIPOS>BOND
   1    1    2 1
   2    1    8 2
   3    1    9 am
   4    2    3 ar
   5    2    7 ar
   6    3    4 ar
   7    3   37 1
   8    4    5 ar
   9    4   38 1
  10    5    6 ar
  11    5   15 1
  12    6    7 ar
  13    6   39 1
  14    7   40 1
  15    9   10 1
  16    9   41 1
  17   10   11 1
  18   10   42 1
  19   10   43 1
  20   11   12 1
  21   11   13 1
  22   11   14 1
  23   15   28 1
  24   15   44 1
  25   15   45 1
  26   16   17 1
  27   16   20 1
  28   17   18 1
  29   17   46 1
  30   17   47 1
  31   18   19 1
  32   19   20 ar
  33   19   21 ar
  34   20   24 ar
  35   21   22 ar
  36   21   48 1
  37   22   23 ar
  38   22   25 1
  39   23   24 ar
  40   23   26 1
  41   24   49 1
  42   25   27 1
  43   26   27 1
  44   26   29 1
  45   26   30 1
  46   27   50 1
  47   27   51 1
  48   28   29 am
  49   28   35 1
  50   29   36 2
  51   30   31 ar
  52   30   35 ar
  53   31   32 ar
  54   31   52 1
  55   32   33 ar
  56   32   53 1
  57   33   34 ar
  58   33   54 1
  59   34   35 ar
  60   34   55 1

#	End of record

