#	Name: ASD01917799
#	Creating user name:	WinNT
#	Creation time:	15. 06. 2019 20:10

#	Modifying user name:	WinNT
#	Modification time:	15. 06. 2019 20:10

#	Program:	/corina/corina34_cracker 3.40 0067  02.08.2006

@<TRIPOS>MOLECULE
ASD01917799
  43   46    0    0    0
SMALL
NO_CHARGES


@<TRIPOS>ATOM
   1 N1             4.8220    -0.4103    -2.1409 N.ar    
   2 C2             5.2887     0.2871    -3.1581 C.ar    
   3 C3             5.1758     1.6669    -3.1845 C.ar    
   4 C4             4.5618     2.3159    -2.1226 C.ar    
   5 C5             4.0814     1.5474    -1.0676 C.ar    
   6 C6             4.2327     0.1685    -1.1139 C.ar    
   7 F7             5.6579     2.3726    -4.2308 F       
   8 O8             3.4733     2.1385    -0.0058 O.3     
   9 C9             3.4535     3.4977     0.0435 C.2     
  10 N10            2.2023     5.5113    -0.0224 N.pl3   
  11 C11            2.2713     4.1515    -0.0662 C.2     
  12 C12            4.6556     4.1991     0.2127 C.2     
  13 C13            4.6320     5.5870     0.2631 C.2     
  14 C14            3.3400     6.2638     0.1361 C.2     
  15 C15            5.8738     6.3574     0.4402 C.2     
  16 N16            5.8308     7.7037     0.4867 N.am    
  17 C17            6.9887     8.4285     0.7595 C.ar    
  18 N18            8.1479     7.7977     0.8650 N.ar    
  19 C19            6.9173     9.8085     0.9128 C.ar    
  20 C20            8.0752    10.5164     1.1836 C.ar    
  21 C21            9.2691     9.8167     1.2920 C.ar    
  22 C22            9.2674     8.4460     1.1223 C.ar    
  23 O23            6.9387     5.7790     0.5445 O.2     
  24 C24            1.1776     6.4045    -0.1048 C.2     
  25 N25            1.6924     7.6024    -0.0076 N.2     
  26 N26            2.9687     7.5286     0.1407 N.2     
  27 C27           10.5613     7.6813     1.2326 C.3     
  28 C28           10.4115     6.5735     2.2773 C.3     
  29 H29            5.7654    -0.2245    -3.9812 H       
  30 H30            4.4598     3.3910    -2.1155 H       
  31 H31            3.8630    -0.4369    -0.2995 H       
  32 H32            1.3628     3.5811    -0.1915 H       
  33 H33            5.5903     3.6658     0.3033 H       
  34 H34            4.9936     8.1679     0.3302 H       
  35 H35            5.9712    10.3211     0.8215 H       
  36 H36            8.0506    11.5890     1.3074 H       
  37 H37           10.1905    10.3392     1.5026 H       
  38 H38            0.1319     6.1670    -0.2332 H       
  39 H39           10.8055     7.2392     0.2667 H       
  40 H40           11.3596     8.3594     1.5341 H       
  41 H41            9.6132     5.8953     1.9758 H       
  42 H42           11.3473     6.0204     2.3570 H       
  43 H43           10.1673     7.0156     3.2432 H       
@<TRIPOS>BOND
   1    1    2 ar
   2    1    6 ar
   3    2    3 ar
   4    2   29 1
   5    3    4 ar
   6    3    7 1
   7    4    5 ar
   8    4   30 1
   9    5    6 ar
  10    5    8 1
  11    6   31 1
  12    8    9 1
  13    9   12 1
  14    9   11 2
  15   10   11 1
  16   10   24 1
  17   10   14 1
  18   11   32 1
  19   12   13 2
  20   12   33 1
  21   13   14 1
  22   13   15 1
  23   14   26 2
  24   15   16 am
  25   15   23 2
  26   16   17 1
  27   16   34 1
  28   17   19 ar
  29   17   18 ar
  30   18   22 ar
  31   19   20 ar
  32   19   35 1
  33   20   21 ar
  34   20   36 1
  35   21   22 ar
  36   21   37 1
  37   22   27 1
  38   24   25 2
  39   24   38 1
  40   25   26 1
  41   27   28 1
  42   27   39 1
  43   27   40 1
  44   28   41 1
  45   28   42 1
  46   28   43 1

#	End of record

