#	Name: ASD01150166
#	Creating user name:	WinNT
#	Creation time:	15. 06. 2019 19:03

#	Modifying user name:	WinNT
#	Modification time:	15. 06. 2019 19:03

#	Program:	/corina/corina34_cracker 3.40 0067  02.08.2006

@<TRIPOS>MOLECULE
ASD01150166
  51   54    0    0    0
SMALL
NO_CHARGES


@<TRIPOS>ATOM
   1 N1            -0.0166     1.3763     0.0096 N.pl3   
   2 C2             0.0021    -0.0041     0.0020 C.2     
   3 C3            -1.3262    -0.4109     0.0125 C.2     
   4 N4            -2.0781     0.6927     0.0256 N.2     
   5 C5            -1.3102     1.7524     0.0299 C.2     
   6 C6             1.0206    -0.9813    -0.0125 C.2     
   7 N7             0.6807    -2.2871    -0.0159 N.am    
   8 C8            -0.6087    -2.6667    -0.0061 C.2     
   9 N9            -1.6103    -1.7670     0.0083 N.am    
  10 O10            2.1925    -0.6496    -0.0223 O.2     
  11 C11           -3.0026    -2.2226     0.0187 C.3     
  12 O12           -0.8774    -3.8526    -0.0100 O.2     
  13 C13            1.7328    -3.3064    -0.0310 C.3     
  14 C14            2.1070    -3.6631     1.3845 C.2     
  15 C15           -1.7991     3.1779     0.0446 C.3     
  16 C16           -1.9566     3.6481     1.4920 C.3     
  17 C17            1.1490     2.2638     0.0032 C.3     
  18 C18           -3.4739    -2.3894     1.4647 C.3     
  19 C19           -4.9279    -2.8653     1.4755 C.3     
  20 S20            3.3266    -2.8767     2.2825 S.3     
  21 C21            3.0172    -3.9213     3.6658 C.ar    
  22 C22            1.9867    -4.8024     3.3202 C.ar    
  23 N23            1.5464    -4.5898     2.0655 N.2     
  24 C24            3.6000    -3.9834     4.9298 C.ar    
  25 C25            3.1617    -4.9147     5.8438 C.ar    
  26 C26            2.1399    -5.7917     5.5074 C.ar    
  27 C27            1.5582    -5.7448     4.2770 C.ar    
  28 C28            1.6680    -6.8071     6.5160 C.3     
  29 F29            2.4042    -6.6679     7.6974 F       
  30 F30            0.3107    -6.6011     6.7852 F       
  31 F31            1.8511    -8.0952     6.0015 F       
  32 H32           -3.6294    -1.4868    -0.4852 H       
  33 H33           -3.0759    -3.1785    -0.4999 H       
  34 H34            1.3696    -4.1958    -0.5459 H       
  35 H35            2.6081    -2.9174    -0.5512 H       
  36 H36           -1.0779     3.8146    -0.4679 H       
  37 H37           -2.7616     3.2371    -0.4635 H       
  38 H38           -2.6777     3.0114     2.0044 H       
  39 H39           -0.9941     3.5888     2.0001 H       
  40 H40           -2.3101     4.6791     1.5026 H       
  41 H41            1.4282     2.4894    -1.0259 H       
  42 H42            0.9039     3.1892     0.5244 H       
  43 H43            1.9820     1.7730     0.5065 H       
  44 H44           -2.8470    -3.1252     1.9685 H       
  45 H45           -3.4005    -1.4335     1.9833 H       
  46 H46           -5.2637    -2.9841     2.5057 H       
  47 H47           -5.5548    -2.1295     0.9717 H       
  48 H48           -5.0013    -3.8212     0.9569 H       
  49 H49            4.3954    -3.3015     5.1922 H       
  50 H50            3.6136    -4.9632     6.8235 H       
  51 H51            0.7645    -6.4351     4.0322 H       
@<TRIPOS>BOND
   1    1    2 1
   2    1   17 1
   3    1    5 1
   4    2    3 2
   5    2    6 1
   6    3    4 1
   7    3    9 1
   8    4    5 2
   9    5   15 1
  10    6    7 am
  11    6   10 2
  12    7    8 am
  13    7   13 1
  14    8    9 am
  15    8   12 2
  16    9   11 1
  17   11   18 1
  18   11   32 1
  19   11   33 1
  20   13   14 1
  21   13   34 1
  22   13   35 1
  23   14   20 1
  24   14   23 2
  25   15   16 1
  26   15   36 1
  27   15   37 1
  28   16   38 1
  29   16   39 1
  30   16   40 1
  31   17   41 1
  32   17   42 1
  33   17   43 1
  34   18   19 1
  35   18   44 1
  36   18   45 1
  37   19   46 1
  38   19   47 1
  39   19   48 1
  40   20   21 1
  41   21   22 ar
  42   21   24 ar
  43   22   23 1
  44   22   27 ar
  45   24   25 ar
  46   24   49 1
  47   25   26 ar
  48   25   50 1
  49   26   27 ar
  50   26   28 1
  51   27   51 1
  52   28   29 1
  53   28   30 1
  54   28   31 1

#	End of record

