#	Name: ASD01917547
#	Creating user name:	WinNT
#	Creation time:	15. 06. 2019 20:09

#	Modifying user name:	WinNT
#	Modification time:	15. 06. 2019 20:09

#	Program:	/corina/corina34_cracker 3.40 0067  02.08.2006

@<TRIPOS>MOLECULE
ASD01917547
  40   42    0    0    0
SMALL
NO_CHARGES


@<TRIPOS>ATOM
   1 C1            -0.0167     1.3774     0.0096 C.ar    
   2 C2             0.0021    -0.0041     0.0020 C.ar    
   3 C3             1.2102    -0.6829    -0.0127 C.ar    
   4 C4             2.4041     0.0165    -0.0203 C.ar    
   5 C5             2.4000     1.3954    -0.0134 C.ar    
   6 C6             1.1860     2.0883     0.0019 C.ar    
   7 C7             1.1752     3.5202     0.0093 C.1     
   8 C8             1.1663     4.6942     0.0153 C.1     
   9 C9             1.1555     6.1261     0.0226 C.ar    
  10 N10           -0.0707     8.1404     0.0496 N.ar    
  11 C11           -0.0564     6.8271     0.0433 C.ar    
  12 C12            2.3586     6.8467     0.0150 C.ar    
  13 C13            2.2971     8.2261     0.0225 C.ar    
  14 C14            1.0504     8.8526     0.0372 C.ar    
  15 C15            0.9762    10.3310     0.0446 C.2     
  16 C16            1.5416    12.4940     0.0427 C.3     
  17 N17            2.0182    11.1019     0.0281 N.2     
  18 N18           -0.2063    11.0344     0.0639 N.am    
  19 C19            0.0315    12.3630     0.0664 C.2     
  20 C20            2.0406    13.2189     1.2943 C.3     
  21 C21            1.9931    13.2291    -1.2208 C.3     
  22 O22           -0.7860    13.2584     0.0838 O.2     
  23 C23           -1.5388    10.4256     0.0792 C.3     
  24 F24           -1.1593    -0.6943     0.0094 F       
  25 H25           -0.9583     1.9062     0.0169 H       
  26 H26            1.2198    -1.7629    -0.0179 H       
  27 H27            3.3418    -0.5192    -0.0315 H       
  28 H28            3.3332     1.9391    -0.0190 H       
  29 H29           -0.9889     6.2823     0.0538 H       
  30 H30            3.3098     6.3353     0.0039 H       
  31 H31            3.2035     8.8134     0.0173 H       
  32 H32            3.1304    13.2407     1.2913 H       
  33 H33            1.6569    14.2391     1.3006 H       
  34 H34            1.6902    12.6934     2.1826 H       
  35 H35            1.6092    12.7108    -2.0995 H       
  36 H36            1.6095    14.2493    -1.2043 H       
  37 H37            3.0822    13.2510    -1.2588 H       
  38 H38           -1.8553    10.2699     1.1105 H       
  39 H39           -2.2459    11.0865    -0.4221 H       
  40 H40           -1.5064     9.4675    -0.4396 H       
@<TRIPOS>BOND
   1    1    2 ar
   2    1    6 ar
   3    1   25 1
   4    2    3 ar
   5    2   24 1
   6    3    4 ar
   7    3   26 1
   8    4    5 ar
   9    4   27 1
  10    5    6 ar
  11    5   28 1
  12    6    7 1
  13    7    8 3
  14    8    9 1
  15    9   12 ar
  16    9   11 ar
  17   10   11 ar
  18   10   14 ar
  19   11   29 1
  20   12   13 ar
  21   12   30 1
  22   13   14 ar
  23   13   31 1
  24   14   15 1
  25   15   18 1
  26   15   17 2
  27   16   17 1
  28   16   19 1
  29   16   20 1
  30   16   21 1
  31   18   19 am
  32   18   23 1
  33   19   22 2
  34   20   32 1
  35   20   33 1
  36   20   34 1
  37   21   35 1
  38   21   36 1
  39   21   37 1
  40   23   38 1
  41   23   39 1
  42   23   40 1

#	End of record

