#	Name: ASD05430321
#	Creating user name:	WinNT
#	Creation time:	15. 06. 2019 21:00

#	Modifying user name:	WinNT
#	Modification time:	15. 06. 2019 21:00

#	Program:	/corina/corina34_cracker 3.40 0067  02.08.2006

@<TRIPOS>MOLECULE
ASD05430321
  54   58    0    0    0
SMALL
NO_CHARGES


@<TRIPOS>ATOM
   1 N1            -0.0682     2.0203     0.0691 N.pl3   
   2 C2             1.4104     1.8766    -0.0013 C.3     
   3 O3             1.8183     3.0383    -0.7269 O.3     
   4 N4             0.7272     3.9430    -0.6555 N.2     
   5 C5            -0.3277     3.3511    -0.1738 C.2     
   6 C6             2.0543     1.7910     1.3585 C.ar    
   7 C7             3.4063     2.0424     1.4998 C.ar    
   8 C8             1.2916     1.4665     2.4649 C.ar    
   9 C9             1.8815     1.3882     3.7124 C.ar    
  10 C10            3.2357     1.6342     3.8536 C.ar    
  11 C11            3.9975     1.9636     2.7467 C.ar    
  12 C12           -1.6154     4.0106     0.0759 C.2     
  13 C13           -1.7647     5.3201    -0.1965 C.2     
  14 C14           -3.0558     5.9815     0.0539 C.ar    
  15 C15           -4.1285     5.2505     0.5748 C.ar    
  16 C16           -3.2110     7.3431    -0.2230 C.ar    
  17 C17           -4.4252     7.9591     0.0144 C.ar    
  18 C18           -5.4919     7.2228     0.5288 C.ar    
  19 C19           -5.3361     5.8712     0.8089 C.ar    
  20 N20           -6.7222     7.8492     0.7693 N.pl3   
  21 C21           -6.9195     9.0047     1.4556 C.2     
  22 N22           -8.1979     9.2682     1.4671 N.2     
  23 C23           -8.8555     8.3081     0.8003 C.2     
  24 C24           -7.9534     7.4147     0.3513 C.2     
  25 O25           -4.5796     9.2831    -0.2533 O.3     
  26 C26           -3.4450     9.9754    -0.7783 C.3     
  27 C27          -10.3458     8.2431     0.5861 C.3     
  28 C28           -0.5794     0.6691     0.3197 C.3     
  29 C29            0.4429    -0.3110    -0.2957 C.3     
  30 C30            1.5850     0.5891    -0.8324 C.3     
  31 Cl31           3.9773     1.5362     5.4202 Cl      
  32 H32            4.0007     2.3002     0.6358 H       
  33 H33            0.2346     1.2745     2.3545 H       
  34 H34            1.2855     1.1354     4.5768 H       
  35 H35            5.0547     2.1554     2.8562 H       
  36 H36           -2.4428     3.4450     0.4781 H       
  37 H37           -0.9373     5.8858    -0.5987 H       
  38 H38           -4.0103     4.1994     0.7931 H       
  39 H39           -2.3840     7.9122    -0.6211 H       
  40 H40           -6.1649     5.3046     1.2069 H       
  41 H41           -6.1479     9.6046     1.9152 H       
  42 H42           -8.1608     6.5233    -0.2221 H       
  43 H43           -2.6212     9.9144    -0.0672 H       
  44 H44           -3.1453     9.5189    -1.7216 H       
  45 H45           -3.7032    11.0209    -0.9465 H       
  46 H46          -10.6032     8.7624    -0.3370 H       
  47 H47          -10.6577     7.2011     0.5159 H       
  48 H48          -10.8545     8.7189     1.4246 H       
  49 H49           -0.6643     0.4951     1.3924 H       
  50 H50           -1.5512     0.5431    -0.1574 H       
  51 H51            0.8226    -0.9910     0.4669 H       
  52 H52           -0.0133    -0.8717    -1.1115 H       
  53 H53            1.4511     0.7926    -1.8949 H       
  54 H54            2.5576     0.1348    -0.6434 H       
@<TRIPOS>BOND
   1    1   28 1
   2    1    2 1
   3    1    5 1
   4    2    3 1
   5    2    6 1
   6    2   30 1
   7    3    4 1
   8    4    5 2
   9    5   12 1
  10    6    7 ar
  11    6    8 ar
  12    7   11 ar
  13    7   32 1
  14    8    9 ar
  15    8   33 1
  16    9   10 ar
  17    9   34 1
  18   10   11 ar
  19   10   31 1
  20   11   35 1
  21   12   13 2
  22   12   36 1
  23   13   14 1
  24   13   37 1
  25   14   15 ar
  26   14   16 ar
  27   15   19 ar
  28   15   38 1
  29   16   17 ar
  30   16   39 1
  31   17   18 ar
  32   17   25 1
  33   18   19 ar
  34   18   20 1
  35   19   40 1
  36   20   21 1
  37   20   24 1
  38   21   22 2
  39   21   41 1
  40   22   23 1
  41   23   24 2
  42   23   27 1
  43   24   42 1
  44   25   26 1
  45   26   43 1
  46   26   44 1
  47   26   45 1
  48   27   46 1
  49   27   47 1
  50   27   48 1
  51   28   29 1
  52   28   49 1
  53   28   50 1
  54   29   30 1
  55   29   51 1
  56   29   52 1
  57   30   53 1
  58   30   54 1

#	End of record

