#	Name: ASD01810664
#	Creating user name:	WinNT
#	Creation time:	15. 06. 2019 19:25

#	Modifying user name:	WinNT
#	Modification time:	15. 06. 2019 19:25

#	Program:	/corina/corina34_cracker 3.40 0067  02.08.2006

@<TRIPOS>MOLECULE
ASD01810664
  68   72    0    0    0
SMALL
NO_CHARGES


@<TRIPOS>ATOM
   1 C1             0.0622     1.1932     0.1841 C.ar    
   2 C2            -0.1119    -0.1676    -0.0751 C.ar    
   3 C3            -1.3802    -0.6816    -0.2608 C.ar    
   4 C4            -2.4837     0.1450    -0.1921 C.ar    
   5 C5            -2.3236     1.5084     0.0666 C.ar    
   6 C6            -1.0473     2.0321     0.2605 C.ar    
   7 C7            -3.5064     2.3927     0.1394 C.2     
   8 N8            -4.6737     1.9187     0.6183 N.am    
   9 O9            -3.4260     3.5470    -0.2326 O.2     
  10 C10           -4.7572     0.5640     1.1809 C.3     
  11 C11           -5.8855     2.7492     0.5933 C.3     
  12 C12           -6.4733     2.8063     2.0068 C.3     
  13 C13           -6.6979     1.3820     2.5195 C.3     
  14 C14           -5.3600     0.6502     2.5866 C.3     
  15 C15           -7.3079     1.4344     3.8965 C.ar    
  16 C16           -8.5445     0.8571     4.1244 C.ar    
  17 C17           -9.1084     0.9010     5.3826 C.ar    
  18 C18           -8.4283     1.5300     6.4274 C.ar    
  19 C19           -7.1807     2.1105     6.1903 C.ar    
  20 C20           -6.6261     2.0547     4.9285 C.ar    
  21 C21           -9.0079     1.5798     7.7359 C.1     
  22 C22            1.4215     1.7419     0.3832 C.2     
  23 N23            2.5336     1.0389     0.4527 N.2     
  24 C24            3.5606     1.8646     0.6350 C.2     
  25 C25            3.0853     3.1324     0.6855 C.2     
  26 N26            1.7375     3.0650     0.5206 N.pl3   
  27 C27            5.0271     1.5312     0.7685 C.3     
  28 C28            5.8252     2.8253     0.5581 C.3     
  29 N29            5.2641     3.8942     1.3960 N.3     
  30 C30            3.9566     4.3446     0.8883 C.3     
  31 N31           -9.4677     1.6193     8.7739 N.1     
  32 C32            1.0869    -1.0774    -0.1529 C.3     
  33 C33            6.2007     5.0201     1.5103 C.3     
  34 C34            5.5352     6.1608     2.2828 C.3     
  35 C35            7.4571     4.5646     2.2552 C.3     
  36 H36           -1.5093    -1.7350    -0.4610 H       
  37 H37           -3.4727    -0.2631    -0.3389 H       
  38 H38           -0.9180     3.0854     0.4612 H       
  39 H39           -5.3925    -0.0559     0.5482 H       
  40 H40           -3.7591     0.1296     1.2373 H       
  41 H41           -5.6316     3.7562     0.2621 H       
  42 H42           -6.6146     2.3111    -0.0883 H       
  43 H43           -5.7802     3.3260     2.6683 H       
  44 H44           -7.4240     3.3390     1.9842 H       
  45 H45           -7.3717     0.8549     1.8439 H       
  46 H46           -5.5151    -0.3569     2.9737 H       
  47 H47           -4.6811     1.1928     3.2445 H       
  48 H48           -9.0696     0.3712     3.3153 H       
  49 H49          -10.0739     0.4503     5.5590 H       
  50 H50           -6.6496     2.5989     6.9939 H       
  51 H51           -5.6612     2.5033     4.7437 H       
  52 H52            1.1184     3.8116     0.5084 H       
  53 H53            5.2257     1.1328     1.7634 H       
  54 H54            5.3087     0.7972     0.0134 H       
  55 H55            6.8666     2.6579     0.8330 H       
  56 H56            5.7700     3.1192    -0.4901 H       
  57 H57            4.0900     4.8642    -0.0606 H       
  58 H58            3.4920     5.0141     1.6122 H       
  59 H59            1.3732    -1.3880     0.8519 H       
  60 H60            0.8380    -1.9563    -0.7478 H       
  61 H61            1.9166    -0.5462    -0.6192 H       
  62 H62            6.4748     5.3673     0.5141 H       
  63 H63            5.2611     5.8135     3.2790 H       
  64 H64            6.2301     6.9962     2.3676 H       
  65 H65            4.6401     6.4852     1.7521 H       
  66 H66            7.1831     4.2174     3.2514 H       
  67 H67            7.9313     3.7520     1.7048 H       
  68 H68            8.1521     5.4000     2.3400 H       
@<TRIPOS>BOND
   1    1    2 ar
   2    1   22 1
   3    1    6 ar
   4    2    3 ar
   5    2   32 1
   6    3    4 ar
   7    3   36 1
   8    4    5 ar
   9    4   37 1
  10    5    6 ar
  11    5    7 1
  12    6   38 1
  13    7    8 am
  14    7    9 2
  15    8   10 1
  16    8   11 1
  17   10   14 1
  18   10   39 1
  19   10   40 1
  20   11   12 1
  21   11   41 1
  22   11   42 1
  23   12   13 1
  24   12   43 1
  25   12   44 1
  26   13   14 1
  27   13   15 1
  28   13   45 1
  29   14   46 1
  30   14   47 1
  31   15   16 ar
  32   15   20 ar
  33   16   17 ar
  34   16   48 1
  35   17   18 ar
  36   17   49 1
  37   18   19 ar
  38   18   21 1
  39   19   20 ar
  40   19   50 1
  41   20   51 1
  42   21   31 3
  43   22   23 2
  44   22   26 1
  45   23   24 1
  46   24   25 2
  47   24   27 1
  48   25   26 1
  49   25   30 1
  50   26   52 1
  51   27   28 1
  52   27   53 1
  53   27   54 1
  54   28   29 1
  55   28   55 1
  56   28   56 1
  57   29   30 1
  58   29   33 1
  59   30   57 1
  60   30   58 1
  61   32   59 1
  62   32   60 1
  63   32   61 1
  64   33   34 1
  65   33   35 1
  66   33   62 1
  67   34   63 1
  68   34   64 1
  69   34   65 1
  70   35   66 1
  71   35   67 1
  72   35   68 1

#	End of record

