#	Name: ASD03731560
#	Creating user name:	WinNT
#	Creation time:	15. 06. 2019 20:45

#	Modifying user name:	WinNT
#	Modification time:	15. 06. 2019 20:45

#	Program:	/corina/corina34_cracker 3.40 0067  02.08.2006

@<TRIPOS>MOLECULE
ASD03731560
  33   34    0    0    0
SMALL
NO_CHARGES


@<TRIPOS>ATOM
   1 C1            -0.4030     1.1037    -1.9603 C.2     
   2 C2            -0.2818    -0.2743    -1.4500 C.ar    
   3 C3             0.9018    -0.9948    -1.6483 C.ar    
   4 C4             1.0105    -2.2845    -1.1682 C.ar    
   5 C5            -0.0518    -2.8665    -0.4897 C.ar    
   6 C6            -1.2312    -2.1532    -0.2908 C.ar    
   7 C7            -1.3468    -0.8633    -0.7614 C.ar    
   8 O8             0.5261     1.6160    -2.5545 O.2     
   9 N9            -1.5456     1.7936    -1.7731 N.am    
  10 S10           -1.6817     3.3413    -2.3462 S.o2    
  11 O11           -2.9838     3.7488    -1.9493 O.2     
  12 O12           -0.5247     4.0014    -1.8512 O.2     
  13 C13           -1.5917     3.1658    -4.1495 C.3     
  14 F14           -2.2619    -2.7251     0.3693 F       
  15 F15            1.9358    -0.4292    -2.3087 F       
  16 O16            0.0593    -4.1350    -0.0193 O.3     
  17 C17            1.2619    -4.7567    -0.1387 C.ar    
  18 C18            2.2132    -4.6273     0.8630 C.ar    
  19 C19            3.4357    -5.2604     0.7395 C.ar    
  20 C20            3.7105    -6.0234    -0.3834 C.ar    
  21 C21            2.7627    -6.1530    -1.3825 C.ar    
  22 C22            1.5376    -5.5262    -1.2597 C.ar    
  23 Cl23           5.2466    -6.8175    -0.5373 Cl      
  24 Cl24           4.6271    -5.0989     1.9917 Cl      
  25 H25            1.9231    -2.8416    -1.3208 H       
  26 H26           -2.2602    -0.3095    -0.6024 H       
  27 H27           -2.2882     1.3836    -1.3026 H       
  28 H28           -2.4082     2.5310    -4.4939 H       
  29 H29           -1.6740     4.1480    -4.6147 H       
  30 H30           -0.6389     2.7127    -4.4233 H       
  31 H31            1.9989    -4.0320     1.7383 H       
  32 H32            2.9789    -6.7484    -2.2573 H       
  33 H33            0.7963    -5.6318    -2.0380 H       
@<TRIPOS>BOND
   1    1    2 1
   2    1    8 2
   3    1    9 am
   4    2    3 ar
   5    2    7 ar
   6    3    4 ar
   7    3   15 1
   8    4    5 ar
   9    4   25 1
  10    5    6 ar
  11    5   16 1
  12    6    7 ar
  13    6   14 1
  14    7   26 1
  15    9   10 am
  16    9   27 1
  17   10   11 2
  18   10   12 2
  19   10   13 1
  20   13   28 1
  21   13   29 1
  22   13   30 1
  23   16   17 1
  24   17   18 ar
  25   17   22 ar
  26   18   19 ar
  27   18   31 1
  28   19   20 ar
  29   19   24 1
  30   20   21 ar
  31   20   23 1
  32   21   22 ar
  33   21   32 1
  34   22   33 1

#	End of record

