#	Name: ASD04910063
#	Creating user name:	WinNT
#	Creation time:	15. 06. 2019 20:55

#	Modifying user name:	WinNT
#	Modification time:	15. 06. 2019 20:55

#	Program:	/corina/corina34_cracker 3.40 0067  02.08.2006

@<TRIPOS>MOLECULE
ASD04910063
  30   31    0    0    0
SMALL
NO_CHARGES


@<TRIPOS>ATOM
   1 C1             0.0460     1.4836     0.0629 C.ar    
   2 C2            -0.0554     0.1034    -0.0576 C.ar    
   3 C3             1.0866    -0.6689    -0.1260 C.ar    
   4 C4             2.3365    -0.0665    -0.0743 C.ar    
   5 C5             2.4382     1.3129     0.0462 C.ar    
   6 C6             1.2967     2.0860     0.1146 C.ar    
   7 N7            -1.1103     2.2667     0.1264 N.pl3   
   8 N8             3.4971    -0.8521    -0.1434 N.pl3   
   9 N9             3.8157    -1.9277     0.6956 N.2     
  10 C10            4.9746    -2.4084     0.3224 C.2     
  11 C11            5.4312    -1.6558    -0.7648 C.2     
  12 C12            4.5030    -0.7086    -1.0351 C.2     
  13 C13            6.7257    -1.8659    -1.5072 C.3     
  14 F14            7.4179    -2.9425    -0.9424 F       
  15 F15            6.4530    -2.1405    -2.8516 F       
  16 F16            7.5081    -0.7096    -1.4168 F       
  17 C17            3.7951     1.9662     0.1028 C.3     
  18 C18            0.9767    -2.1663    -0.2563 C.3     
  19 H19           -1.0276    -0.3652    -0.0975 H       
  20 H20            1.3759     3.1590     0.2080 H       
  21 H21           -1.9835     1.8463     0.0863 H       
  22 H22           -1.0393     3.2304     0.2106 H       
  23 H23            5.4898    -3.2423     0.7760 H       
  24 H24            4.5573     0.0307    -1.8205 H       
  25 H25            4.1601     2.1340    -0.9105 H       
  26 H26            3.7174     2.9206     0.6237 H       
  27 H27            4.4891     1.3166     0.6360 H       
  28 H28            0.9020    -2.4348    -1.3100 H       
  29 H29            1.8609    -2.6345     0.1762 H       
  30 H30            0.0876    -2.5126     0.2708 H       
@<TRIPOS>BOND
   1    1    2 ar
   2    1    6 ar
   3    1    7 1
   4    2    3 ar
   5    2   19 1
   6    3    4 ar
   7    3   18 1
   8    4    5 ar
   9    4    8 1
  10    5    6 ar
  11    5   17 1
  12    6   20 1
  13    7   21 1
  14    7   22 1
  15    8    9 1
  16    8   12 1
  17    9   10 2
  18   10   11 1
  19   10   23 1
  20   11   12 2
  21   11   13 1
  22   12   24 1
  23   13   14 1
  24   13   15 1
  25   13   16 1
  26   17   25 1
  27   17   26 1
  28   17   27 1
  29   18   28 1
  30   18   29 1
  31   18   30 1

#	End of record

