#	Name: ASD01680019
#	Creating user name:	WinNT
#	Creation time:	15. 06. 2019 19:22

#	Modifying user name:	WinNT
#	Modification time:	15. 06. 2019 19:22

#	Program:	/corina/corina34_cracker 3.40 0067  02.08.2006

@<TRIPOS>MOLECULE
ASD01680019
  87   90    0    0    0
SMALL
NO_CHARGES


@<TRIPOS>ATOM
   1 N1             0.0271     1.0533     0.4746 N.am    
   2 C2             0.0305    -0.4092     0.2891 C.3     
   3 C3             1.4632    -0.8545     0.6748 C.3     
   4 C4             2.3137     0.3198     0.1227 C.3     
   5 C5             1.4079     1.5458     0.3638 C.3     
   6 C6            -1.0622     1.8137     0.7022 C.2     
   7 O7            -2.1690     1.3130     0.6751 O.2     
   8 O8            -0.9239     3.1279     0.9597 O.3     
   9 C9            -0.9979    -1.0655     1.2124 C.3     
  10 N10           -0.7536    -0.6433     2.5938 N.pl3   
  11 C11           -1.6253    -1.0326     3.6040 C.ar    
  12 C12           -2.7281    -1.8234     3.2964 C.ar    
  13 C13           -3.5872    -2.2035     4.3113 C.ar    
  14 C14           -3.3139    -1.7785     5.6050 C.ar    
  15 C15           -2.2017    -0.9953     5.8386 C.ar    
  16 N16           -1.3960    -0.6522     4.8513 N.ar    
  17 O17            3.5370     0.4441     0.8508 O.3     
  18 C18            4.6218     0.9649     0.0800 C.3     
  19 C19            5.8544     1.0526     0.9426 C.2     
  20 N20            7.0078     1.5190     0.4243 N.am    
  21 O21            5.8084     0.7036     2.1032 O.2     
  22 C22            8.2060     1.6043     1.2629 C.3     
  23 C23            9.3674     2.1619     0.4376 C.3     
  24 N24            8.9755     3.4439    -0.1532 N.am    
  25 C25            9.5769     3.8795    -1.2779 C.2     
  26 O26           10.3765     3.1706    -1.8515 O.2     
  27 C27            9.2557     5.2473    -1.8228 C.3     
  28 C28           10.4363     5.7558    -2.6527 C.3     
  29 C29           10.0645     7.0889    -3.3050 C.3     
  30 C30            8.0281     5.1659    -2.6930 C.ar    
  31 C31            6.9043     5.9048    -2.3737 C.ar    
  32 C32            5.7781     5.8301    -3.1718 C.ar    
  33 C33            5.7759     5.0168    -4.2896 C.ar    
  34 C34            6.9000     4.2785    -4.6094 C.ar    
  35 C35            8.0277     4.3566    -3.8137 C.ar    
  36 C36           11.6509     5.9540    -1.7437 C.3     
  37 C37           10.5653     2.3650     1.3293 C.2     
  38 O38           11.0425     3.4675     1.4580 O.2     
  39 O39           11.1019     1.3212     1.9805 O.3     
  40 C40           -2.1403     3.8850     1.1952 C.3     
  41 C41           -1.7909     5.3261     1.4642 C.ar    
  42 C42           -1.7094     6.2246     0.4169 C.ar    
  43 C43           -1.3888     7.5465     0.6636 C.ar    
  44 C44           -1.1502     7.9699     1.9577 C.ar    
  45 C45           -1.2325     7.0715     3.0051 C.ar    
  46 C46           -1.5573     5.7506     2.7589 C.ar    
  47 H47           -0.1776    -0.6601    -0.7511 H       
  48 H48            1.5683    -0.9383     1.7565 H       
  49 H49            1.7263    -1.7918     0.1846 H       
  50 H50            2.5087     0.1878    -0.9415 H       
  51 H51            1.4887     2.2371    -0.4750 H       
  52 H52            1.6986     2.0455     1.2879 H       
  53 H53           -2.0011    -0.7631     0.9121 H       
  54 H54           -0.9091    -2.1497     1.1427 H       
  55 H55            0.0165    -0.0921     2.8035 H       
  56 H56           -2.9108    -2.1358     2.2789 H       
  57 H57           -4.4514    -2.8166     4.1026 H       
  58 H58           -3.9654    -2.0577     6.4199 H       
  59 H59           -1.9854    -0.6627     6.8431 H       
  60 H60            4.8163     0.3051    -0.7656 H       
  61 H61            4.3632     1.9583    -0.2863 H       
  62 H62            7.0446     1.7981    -0.5039 H       
  63 H63            8.0115     2.2641     2.1085 H       
  64 H64            8.4646     0.6108     1.6292 H       
  65 H65            9.6202     1.4583    -0.3556 H       
  66 H66            8.2831     3.9792     0.2650 H       
  67 H67            9.0704     5.9333    -0.9963 H       
  68 H68           10.6768     5.0271    -3.4268 H       
  69 H69            9.8239     7.8176    -2.5309 H       
  70 H70           10.9055     7.4511    -3.8963 H       
  71 H71            9.1992     6.9477    -3.9526 H       
  72 H72            6.9060     6.5403    -1.5004 H       
  73 H73            4.8999     6.4069    -2.9219 H       
  74 H74            4.8958     4.9579    -4.9128 H       
  75 H75            6.8982     3.6428    -5.4825 H       
  76 H76            8.9072     3.7826    -4.0656 H       
  77 H77           11.9708     4.9895    -1.3493 H       
  78 H78           12.4641     6.4002    -2.3161 H       
  79 H79           11.3831     6.6134    -0.9182 H       
  80 H80           11.8693     1.5007     2.5408 H       
  81 H81           -2.7818     3.8247     0.3161 H       
  82 H82           -2.6646     3.4714     2.0567 H       
  83 H83           -1.8959     5.8938    -0.5942 H       
  84 H84           -1.3245     8.2483    -0.1547 H       
  85 H85           -0.8990     9.0024     2.1503 H       
  86 H86           -1.0457     7.4023     4.0161 H       
  87 H87           -1.6253     5.0496     3.5776 H       
@<TRIPOS>BOND
   1    1    2 1
   2    1    5 1
   3    1    6 am
   4    2    3 1
   5    2    9 1
   6    2   47 1
   7    3    4 1
   8    3   48 1
   9    3   49 1
  10    4    5 1
  11    4   17 1
  12    4   50 1
  13    5   51 1
  14    5   52 1
  15    6    7 2
  16    6    8 1
  17    8   40 1
  18    9   10 1
  19    9   53 1
  20    9   54 1
  21   10   11 1
  22   10   55 1
  23   11   12 ar
  24   11   16 ar
  25   12   13 ar
  26   12   56 1
  27   13   14 ar
  28   13   57 1
  29   14   15 ar
  30   14   58 1
  31   15   16 ar
  32   15   59 1
  33   17   18 1
  34   18   19 1
  35   18   60 1
  36   18   61 1
  37   19   20 am
  38   19   21 2
  39   20   22 1
  40   20   62 1
  41   22   23 1
  42   22   63 1
  43   22   64 1
  44   23   24 1
  45   23   37 1
  46   23   65 1
  47   24   25 am
  48   24   66 1
  49   25   26 2
  50   25   27 1
  51   27   28 1
  52   27   30 1
  53   27   67 1
  54   28   29 1
  55   28   36 1
  56   28   68 1
  57   29   69 1
  58   29   70 1
  59   29   71 1
  60   30   31 ar
  61   30   35 ar
  62   31   32 ar
  63   31   72 1
  64   32   33 ar
  65   32   73 1
  66   33   34 ar
  67   33   74 1
  68   34   35 ar
  69   34   75 1
  70   35   76 1
  71   36   77 1
  72   36   78 1
  73   36   79 1
  74   37   38 2
  75   37   39 1
  76   39   80 1
  77   40   41 1
  78   40   81 1
  79   40   82 1
  80   41   42 ar
  81   41   46 ar
  82   42   43 ar
  83   42   83 1
  84   43   44 ar
  85   43   84 1
  86   44   45 ar
  87   44   85 1
  88   45   46 ar
  89   45   86 1
  90   46   87 1

#	End of record

