#	Name: ASD02198372
#	Creating user name:	WinNT
#	Creation time:	15. 06. 2019 20:19

#	Modifying user name:	WinNT
#	Modification time:	15. 06. 2019 20:19

#	Program:	/corina/corina34_cracker 3.40 0067  02.08.2006

@<TRIPOS>MOLECULE
ASD02198372
  48   51    0    0    0
SMALL
NO_CHARGES


@<TRIPOS>ATOM
   1 C1             0.1351     1.3935    -0.8494 C.2     
   2 C2             0.1753     0.0111    -0.9344 C.2     
   3 S3             1.7473     1.9489    -0.4064 S.3     
   4 C4             2.3125     0.3368    -0.3753 C.2     
   5 N5             1.3563    -0.4960    -0.6727 N.2     
   6 N6            -0.9254    -0.7608    -1.2638 N.pl3   
   7 C7            -0.9810     2.2015    -1.0795 C.2     
   8 C8            -0.8677     3.6984    -0.9473 C.3     
   9 O9            -2.0445     1.6968    -1.3865 O.2     
  10 N10            3.6046    -0.0320    -0.0770 N.pl3   
  11 C11            3.9388    -1.3873     0.0293 C.ar    
  12 C12            2.9981    -2.3010     0.4865 C.ar    
  13 C13            3.3283    -3.6377     0.5907 C.ar    
  14 C14            4.5996    -4.0680     0.2392 C.ar    
  15 C15            5.5401    -3.1556    -0.2172 C.ar    
  16 C16            5.2094    -1.8196    -0.3277 C.ar    
  17 C17           -1.9424     4.3864    -1.8072 C.3     
  18 C18           -2.8238     5.2037    -0.8402 C.3     
  19 C19           -1.9106     5.4555     0.3853 C.3     
  20 C20           -1.1334     4.1217     0.5121 C.3     
  21 O21            4.9242    -5.3842     0.3425 O.3     
  22 C22            4.4692    -6.2307    -0.6181 C.ar    
  23 C23            3.7693    -5.7332    -1.7081 C.ar    
  24 C24            3.3082    -6.5959    -2.6835 C.ar    
  25 C25            3.5436    -7.9541    -2.5744 C.ar    
  26 C26            4.2404    -8.4525    -1.4890 C.ar    
  27 C27            4.7086    -7.5935    -0.5137 C.ar    
  28 H28           -1.7778    -0.3362    -1.4486 H       
  29 H29           -0.8445    -1.7263    -1.3099 H       
  30 H30            0.1246     4.0263    -1.2572 H       
  31 H31            4.2836     0.6471     0.0595 H       
  32 H32            2.0087    -1.9661     0.7608 H       
  33 H33            2.5969    -4.3483     0.9462 H       
  34 H34            6.5297    -3.4912    -0.4899 H       
  35 H35            5.9415    -1.1096    -0.6830 H       
  36 H36           -1.4718     5.0488    -2.5337 H       
  37 H37           -2.5460     3.6376    -2.3200 H       
  38 H38           -3.1173     6.1485    -1.2977 H       
  39 H39           -3.7037     4.6302    -0.5489 H       
  40 H40           -1.2281     6.2837     0.1948 H       
  41 H41           -2.5062     5.6420     1.2789 H       
  42 H42           -1.7403     3.3735     1.0218 H       
  43 H43           -0.1933     4.2769     1.0415 H       
  44 H44            3.5849    -4.6725    -1.7936 H       
  45 H45            2.7631    -6.2093    -3.5319 H       
  46 H46            3.1823    -8.6268    -3.3381 H       
  47 H47            4.4223    -9.5138    -1.4058 H       
  48 H48            5.2531    -7.9833     0.3336 H       
@<TRIPOS>BOND
   1    1    2 2
   2    1    3 1
   3    1    7 1
   4    2    6 1
   5    2    5 1
   6    3    4 1
   7    4    5 2
   8    4   10 1
   9    6   28 1
  10    6   29 1
  11    7    8 1
  12    7    9 2
  13    8   17 1
  14    8   20 1
  15    8   30 1
  16   10   11 1
  17   10   31 1
  18   11   12 ar
  19   11   16 ar
  20   12   13 ar
  21   12   32 1
  22   13   14 ar
  23   13   33 1
  24   14   15 ar
  25   14   21 1
  26   15   16 ar
  27   15   34 1
  28   16   35 1
  29   17   18 1
  30   17   36 1
  31   17   37 1
  32   18   19 1
  33   18   38 1
  34   18   39 1
  35   19   20 1
  36   19   40 1
  37   19   41 1
  38   20   42 1
  39   20   43 1
  40   21   22 1
  41   22   23 ar
  42   22   27 ar
  43   23   24 ar
  44   23   44 1
  45   24   25 ar
  46   24   45 1
  47   25   26 ar
  48   25   46 1
  49   26   27 ar
  50   26   47 1
  51   27   48 1

#	End of record

