#	Name: ASD03740037
#	Creating user name:	WinNT
#	Creation time:	15. 06. 2019 20:46

#	Modifying user name:	WinNT
#	Modification time:	15. 06. 2019 20:46

#	Program:	/corina/corina34_cracker 3.40 0067  02.08.2006

@<TRIPOS>MOLECULE
ASD03740037
  34   35    0    0    0
SMALL
NO_CHARGES


@<TRIPOS>ATOM
   1 C1            -0.0178     1.4648     0.0101 C.3     
   2 N2             0.0021    -0.0041     0.0020 N.3     
   3 C3             1.3960     1.9864    -0.0006 C.ar    
   4 C4             1.6734     3.2420     0.5100 C.ar    
   5 C5             2.9769     3.7214     0.5000 C.ar    
   6 C6             3.9970     2.9387    -0.0225 C.ar    
   7 C7             3.7133     1.6847    -0.5314 C.ar    
   8 C8             2.4156     1.2076    -0.5154 C.ar    
   9 O9             3.2529     4.9549     1.0006 O.3     
  10 C10            3.5677     5.0526     2.3188 C.ar    
  11 C11            3.8570     6.2908     2.8744 C.ar    
  12 C12            4.1767     6.3874     4.2147 C.ar    
  13 C13            4.2087     5.2516     5.0026 C.ar    
  14 C14            3.9213     4.0165     4.4514 C.ar    
  15 C15            3.5949     3.9151     3.1130 C.ar    
  16 Cl16           5.6277     3.5338    -0.0378 Cl      
  17 F17            0.6775     4.0010     1.0174 F       
  18 C18           -0.7578     1.9716    -1.2294 C.3     
  19 C19           -2.2258     1.5465    -1.1564 C.3     
  20 H20           -0.5280     1.8163     0.9069 H       
  21 H21            0.4701    -0.3548    -0.8202 H       
  22 H22            0.4286    -0.3645     0.8424 H       
  23 H23            4.5069     1.0757    -0.9383 H       
  24 H24            2.1975     0.2261    -0.9098 H       
  25 H25            3.8325     7.1782     2.2593 H       
  26 H26            4.4023     7.3508     4.6475 H       
  27 H27            4.4590     5.3292     6.0504 H       
  28 H28            3.9477     3.1308     5.0689 H       
  29 H29            3.3655     2.9509     2.6841 H       
  30 H30           -0.6961     3.0591    -1.2701 H       
  31 H31           -0.3010     1.5481    -2.1238 H       
  32 H32           -2.7530     1.9076    -2.0395 H       
  33 H33           -2.2875     0.4590    -1.1158 H       
  34 H34           -2.6826     1.9700    -0.2620 H       
@<TRIPOS>BOND
   1    1    2 1
   2    1    3 1
   3    1   18 1
   4    1   20 1
   5    2   21 1
   6    2   22 1
   7    3    4 ar
   8    3    8 ar
   9    4    5 ar
  10    4   17 1
  11    5    6 ar
  12    5    9 1
  13    6    7 ar
  14    6   16 1
  15    7    8 ar
  16    7   23 1
  17    8   24 1
  18    9   10 1
  19   10   11 ar
  20   10   15 ar
  21   11   12 ar
  22   11   25 1
  23   12   13 ar
  24   12   26 1
  25   13   14 ar
  26   13   27 1
  27   14   15 ar
  28   14   28 1
  29   15   29 1
  30   18   19 1
  31   18   30 1
  32   18   31 1
  33   19   32 1
  34   19   33 1
  35   19   34 1

#	End of record

