#	Name: ASD04590090
#	Creating user name:	WinNT
#	Creation time:	15. 06. 2019 20:50

#	Modifying user name:	WinNT
#	Modification time:	15. 06. 2019 20:50

#	Program:	/corina/corina34_cracker 3.40 0067  02.08.2006

@<TRIPOS>MOLECULE
ASD04590090
  42   44    0    0    0
SMALL
NO_CHARGES


@<TRIPOS>ATOM
   1 C1            -0.0172     1.4148     0.0098 C.2     
   2 C2             0.0021    -0.0041     0.0020 C.2     
   3 C3             1.2886     1.7938    -0.0006 C.2     
   4 N4             2.0329     0.6583    -0.0138 N.pl3   
   5 N5             1.2682    -0.3737    -0.0121 N.2     
   6 N6            -1.1445     2.2495     0.0200 N.am    
   7 C7            -0.9915     3.5885     0.0265 C.2     
   8 C8            -1.1720    -0.8970     0.0089 C.2     
   9 N9            -1.0019    -2.2339     0.0000 N.am    
  10 C10           -2.1680    -3.1207     0.0068 C.3     
  11 C11           -1.7897    -4.4683    -0.6141 C.3     
  12 C12           -2.9938    -5.4105    -0.5489 C.3     
  13 N13           -3.3992    -5.5927     0.8507 N.3     
  14 C14           -3.8121    -4.3192     1.4541 C.3     
  15 C15           -2.6324    -3.3444     1.4486 C.3     
  16 O16            0.1237     4.0730     0.0236 O.2     
  17 C17           -2.1783     4.4672     0.0372 C.ar    
  18 C18           -2.7487     4.8917    -1.1659 C.ar    
  19 C19           -2.7401     4.8739     1.2505 C.ar    
  20 C20           -3.8502     5.6952     1.2523 C.ar    
  21 C21           -4.4063     6.1151     0.0573 C.ar    
  22 C22           -3.8587     5.7129    -1.1477 C.ar    
  23 O23           -2.2933    -0.4268     0.0225 O.2     
  24 Cl24          -2.0633     4.3883    -2.6794 Cl      
  25 Cl25          -2.0447     4.3473     2.7514 Cl      
  26 H26            1.6630     2.8069     0.0009 H       
  27 H27            3.0025     0.6304    -0.0235 H       
  28 H28           -2.0342     1.8629     0.0223 H       
  29 H29           -0.1074    -2.6090    -0.0109 H       
  30 H30           -2.9739    -2.6672    -0.5702 H       
  31 H31           -1.4989    -4.3209    -1.6542 H       
  32 H32           -0.9571    -4.9029    -0.0609 H       
  33 H33           -3.8216    -4.9817    -1.1138 H       
  34 H34           -2.7234    -6.3756    -0.9773 H       
  35 H35           -4.1304    -6.2836     0.9284 H       
  36 H36           -4.6360    -3.8955     0.8798 H       
  37 H37           -4.1360    -4.4917     2.4804 H       
  38 H38           -1.8131    -3.7614     2.0343 H       
  39 H39           -2.9436    -2.3941     1.8823 H       
  40 H40           -4.2855     6.0103     2.1891 H       
  41 H41           -5.2749     6.7569     0.0651 H       
  42 H42           -4.2984     6.0449    -2.0766 H       
@<TRIPOS>BOND
   1    1    2 1
   2    1    3 2
   3    1    6 1
   4    2    8 1
   5    2    5 2
   6    3    4 1
   7    3   26 1
   8    4    5 1
   9    4   27 1
  10    6    7 am
  11    6   28 1
  12    7   16 2
  13    7   17 1
  14    8    9 am
  15    8   23 2
  16    9   10 1
  17    9   29 1
  18   10   11 1
  19   10   15 1
  20   10   30 1
  21   11   12 1
  22   11   31 1
  23   11   32 1
  24   12   13 1
  25   12   33 1
  26   12   34 1
  27   13   14 1
  28   13   35 1
  29   14   15 1
  30   14   36 1
  31   14   37 1
  32   15   38 1
  33   15   39 1
  34   17   18 ar
  35   17   19 ar
  36   18   24 1
  37   18   22 ar
  38   19   20 ar
  39   19   25 1
  40   20   21 ar
  41   20   40 1
  42   21   22 ar
  43   21   41 1
  44   22   42 1

#	End of record

