#	Name: ASD03330997
#	Creating user name:	WinNT
#	Creation time:	15. 06. 2019 20:38

#	Modifying user name:	WinNT
#	Modification time:	15. 06. 2019 20:38

#	Program:	/corina/corina34_cracker 3.40 0067  02.08.2006

@<TRIPOS>MOLECULE
ASD03330997
  67   71    0    0    0
SMALL
NO_CHARGES


@<TRIPOS>ATOM
   1 C1             0.0825     1.3993     0.8839 C.2     
   2 O2             0.0513     0.1859     0.8076 O.2     
   3 N3             1.1584     2.0753     0.4345 N.am    
   4 C4             2.3554     1.3576    -0.0246 C.3     
   5 C5             3.5741     1.8977     0.7303 C.3     
   6 C6             3.6459     3.4163     0.5549 C.3     
   7 C7             2.3885     4.0596     1.1443 C.3     
   8 C8             1.1543     3.5439     0.3888 C.3     
   9 C9             2.1974    -0.1375     0.2594 C.3     
  10 O10            0.3557    -2.2584    -2.8459 O.3     
  11 C11            0.1174    -2.7277    -1.5162 C.3     
  12 C12            1.2007    -2.1774    -0.5847 C.3     
  13 N13            1.2082    -0.7094    -0.6638 N.3     
  14 C14            1.4549    -0.2633    -2.0428 C.3     
  15 C15            0.3691    -0.8328    -2.9596 C.3     
  16 N16           -3.0240     2.6099     2.2995 N.pl3   
  17 C17           -2.2530     1.5920     1.8315 C.2     
  18 C18           -2.6616     0.1440     1.7576 C.3     
  19 N19           -4.0031     0.0514     1.1604 N.3     
  20 C20           -5.0464     0.1412     2.1837 C.3     
  21 C21           -4.6200     1.0685     3.3182 C.3     
  22 C22           -4.4039     2.4844     2.7771 C.3     
  23 C23           -2.2805     3.7520     2.2277 C.2     
  24 N24           -1.1066     3.4563     1.7202 N.2     
  25 C25           -1.0585     2.1307     1.4620 C.2     
  26 C26           -2.7235     5.0978     2.6505 C.ar    
  27 C27           -1.8530     5.9333     3.3558 C.ar    
  28 C28           -2.2722     7.1899     3.7485 C.ar    
  29 C29           -3.5524     7.6219     3.4443 C.ar    
  30 C30           -4.4210     6.7960     2.7446 C.ar    
  31 C31           -4.0102     5.5405     2.3419 C.ar    
  32 F32           -5.6687     7.2234     2.4515 F       
  33 F33           -3.9574     8.8515     3.8306 F       
  34 F34           -0.6041     5.5128     3.6534 F       
  35 C35           -4.1442    -1.1795     0.3713 C.3     
  36 H36            2.4887     1.5163    -1.0947 H       
  37 H37            3.4816     1.6578     1.7896 H       
  38 H38            4.4804     1.4421     0.3315 H       
  39 H39            4.5261     3.8002     1.0707 H       
  40 H40            3.7135     3.6565    -0.5061 H       
  41 H41            2.3072     3.7994     2.1996 H       
  42 H42            2.4511     5.1428     1.0400 H       
  43 H43            1.1916     3.8772    -0.6483 H       
  44 H44            0.2490     3.9217     0.8639 H       
  45 H45            3.1561    -0.6371     0.1198 H       
  46 H46            1.8602    -0.2787     1.2862 H       
  47 H47           -0.8609    -2.3851    -1.1791 H       
  48 H48            0.1462    -3.8173    -1.5041 H       
  49 H49            0.9910    -2.4856     0.4395 H       
  50 H50            2.1734    -2.5633    -0.8897 H       
  51 H51            1.4307     0.8257    -2.0829 H       
  52 H52            2.4316    -0.6186    -2.3711 H       
  53 H53            0.5798    -0.5520    -3.9915 H       
  54 H54           -0.6019    -0.4351    -2.6645 H       
  55 H55           -1.9496    -0.4045     1.1408 H       
  56 H56           -2.6794    -0.2813     2.7610 H       
  57 H57           -5.9600     0.5262     1.7308 H       
  58 H58           -5.2390    -0.8530     2.5870 H       
  59 H59           -5.3971     1.0872     4.0823 H       
  60 H60           -3.6914     0.7022     3.7560 H       
  61 H61           -4.5820     3.2092     3.5715 H       
  62 H62           -5.0930     2.6687     1.9529 H       
  63 H63           -1.6005     7.8363     4.2938 H       
  64 H64           -4.6852     4.9007     1.7928 H       
  65 H65           -3.9883    -2.0444     1.0161 H       
  66 H66           -5.1449    -1.2227    -0.0588 H       
  67 H67           -3.4043    -1.1849    -0.4291 H       
@<TRIPOS>BOND
   1    1    2 2
   2    1    3 am
   3    1   25 1
   4    3    4 1
   5    3    8 1
   6    4    5 1
   7    4    9 1
   8    4   36 1
   9    5    6 1
  10    5   37 1
  11    5   38 1
  12    6    7 1
  13    6   39 1
  14    6   40 1
  15    7    8 1
  16    7   41 1
  17    7   42 1
  18    8   43 1
  19    8   44 1
  20    9   13 1
  21    9   45 1
  22    9   46 1
  23   10   11 1
  24   10   15 1
  25   11   12 1
  26   11   47 1
  27   11   48 1
  28   12   13 1
  29   12   49 1
  30   12   50 1
  31   13   14 1
  32   14   15 1
  33   14   51 1
  34   14   52 1
  35   15   53 1
  36   15   54 1
  37   16   17 1
  38   16   22 1
  39   16   23 1
  40   17   18 1
  41   17   25 2
  42   18   19 1
  43   18   55 1
  44   18   56 1
  45   19   20 1
  46   19   35 1
  47   20   21 1
  48   20   57 1
  49   20   58 1
  50   21   22 1
  51   21   59 1
  52   21   60 1
  53   22   61 1
  54   22   62 1
  55   23   24 2
  56   23   26 1
  57   24   25 1
  58   26   27 ar
  59   26   31 ar
  60   27   28 ar
  61   27   34 1
  62   28   29 ar
  63   28   63 1
  64   29   30 ar
  65   29   33 1
  66   30   31 ar
  67   30   32 1
  68   31   64 1
  69   35   65 1
  70   35   66 1
  71   35   67 1

#	End of record

