#	Name: ASD05940128
#	Creating user name:	WinNT
#	Creation time:	15. 06. 2019 21:04

#	Modifying user name:	WinNT
#	Modification time:	15. 06. 2019 21:04

#	Program:	/corina/corina34_cracker 3.40 0067  02.08.2006

@<TRIPOS>MOLECULE
ASD05940128
  65   68    0    0    0
SMALL
NO_CHARGES


@<TRIPOS>ATOM
   1 C1             0.7313     0.2793     0.3174 C.ar    
   2 C2             0.9889    -1.0776     0.3807 C.ar    
   3 C3             1.7716     1.1868     0.2528 C.ar    
   4 C4             3.0931     0.7277     0.2232 C.ar    
   5 C5             3.3331    -0.6486     0.2926 C.ar    
   6 C6             2.2908    -1.5432     0.3764 C.ar    
   7 C7             1.4864     2.6657     0.2450 C.3     
   8 N8             1.2130     3.1560     1.5856 N.pl3   
   9 C9             1.8092     2.6236     2.8469 C.3     
  10 C10            4.2163     1.6517     0.0704 C.2     
  11 C11            5.4323     1.5474     0.5294 C.2     
  12 C12            5.9150     0.4062     1.3798 C.3     
  13 N13            0.3426     4.1760     1.9849 N.2     
  14 C14            0.6039     4.6382     3.1532 C.2     
  15 C15            1.8317     3.9187     3.6924 C.3     
  16 C16            0.8928     1.5485     3.4279 C.3     
  17 C17           -0.1728     5.7217     3.8489 C.3     
  18 C18            1.8031     3.7032     5.1859 C.3     
  19 N19            3.1885     3.7892     5.7814 N.3     
  20 C20            4.0531     3.0102     4.8393 C.3     
  21 C21            3.5559     5.2314     5.6761 C.3     
  22 C22            5.0324     5.5160     5.5390 C.3     
  23 C23            5.9527     4.7349     6.4636 C.3     
  24 O24            5.4472     5.4169     4.1770 O.3     
  25 O25            7.2317     4.5495     5.8335 O.3     
  26 C26            7.2888     3.5887     4.8694 C.ar    
  27 C27            7.5415     3.9479     3.5542 C.ar    
  28 C28            7.1138     2.2542     5.1945 C.ar    
  29 C29            7.1116     1.2943     4.1990 C.ar    
  30 C30            7.2974     1.6625     2.8717 C.ar    
  31 C31            7.5392     2.9927     2.5543 C.ar    
  32 O32            7.2168     0.7215     1.8934 O.3     
  33 H33           -0.2903     0.6332     0.3139 H       
  34 H34            0.1698    -1.7815     0.4343 H       
  35 H35            4.3492    -1.0170     0.2708 H       
  36 H36            2.4920    -2.6038     0.4407 H       
  37 H37            2.3422     3.1972    -0.1694 H       
  38 H38            0.6166     2.8511    -0.3916 H       
  39 H39            2.8013     2.2357     2.6488 H       
  40 H40            4.0149     2.5548    -0.5300 H       
  41 H41            6.1528     2.3315     0.2777 H       
  42 H42            5.2289     0.2441     2.2099 H       
  43 H43            5.9881    -0.5011     0.7813 H       
  44 H44            2.7090     4.5215     3.3962 H       
  45 H45            0.8023     0.7260     2.7184 H       
  46 H46            1.3146     1.1777     4.3621 H       
  47 H47           -0.0923     1.9746     3.6179 H       
  48 H48           -0.9902     6.0517     3.2078 H       
  49 H49           -0.5779     5.3351     4.7841 H       
  50 H50            0.4867     6.5637     4.0592 H       
  51 H51            1.2320     4.4939     5.6859 H       
  52 H52            1.4025     2.7491     5.4981 H       
  53 H53            4.0089     3.4615     3.8481 H       
  54 H54            5.0824     3.0208     5.1977 H       
  55 H55            3.6974     1.9812     4.7862 H       
  56 H56            3.0107     5.6512     4.8262 H       
  57 H57            3.1691     5.7227     6.5814 H       
  58 H58            5.1694     6.5926     5.8154 H       
  59 H59            6.1130     5.3232     7.3839 H       
  60 H60            5.5312     3.7831     6.7611 H       
  61 H61            5.0575     6.0858     3.5975 H       
  62 H62            7.7487     4.9813     3.3076 H       
  63 H63            6.9830     1.9627     6.2280 H       
  64 H64            6.9657     0.2553     4.4538 H       
  65 H65            7.7255     3.2780     1.5296 H       
@<TRIPOS>BOND
   1    1    2 ar
   2    1    3 ar
   3    1   33 1
   4    2    6 ar
   5    2   34 1
   6    3    4 ar
   7    3    7 1
   8    4    5 ar
   9    4   10 1
  10    5    6 ar
  11    5   35 1
  12    6   36 1
  13    7    8 1
  14    7   37 1
  15    7   38 1
  16    8    9 1
  17    8   13 1
  18    9   16 1
  19    9   15 1
  20    9   39 1
  21   10   11 2
  22   10   40 1
  23   11   12 1
  24   11   41 1
  25   12   32 1
  26   12   42 1
  27   12   43 1
  28   13   14 2
  29   14   15 1
  30   14   17 1
  31   15   18 1
  32   15   44 1
  33   16   45 1
  34   16   46 1
  35   16   47 1
  36   17   48 1
  37   17   49 1
  38   17   50 1
  39   18   19 1
  40   18   51 1
  41   18   52 1
  42   19   20 1
  43   19   21 1
  44   20   53 1
  45   20   54 1
  46   20   55 1
  47   21   22 1
  48   21   56 1
  49   21   57 1
  50   22   23 1
  51   22   24 1
  52   22   58 1
  53   23   25 1
  54   23   59 1
  55   23   60 1
  56   24   61 1
  57   25   26 1
  58   26   27 ar
  59   26   28 ar
  60   27   31 ar
  61   27   62 1
  62   28   29 ar
  63   28   63 1
  64   29   30 ar
  65   29   64 1
  66   30   31 ar
  67   30   32 1
  68   31   65 1

#	End of record

