#	Name: ASD01001179
#	Creating user name:	WinNT
#	Creation time:	15. 06. 2019 18:55

#	Modifying user name:	WinNT
#	Modification time:	15. 06. 2019 18:55

#	Program:	/corina/corina34_cracker 3.40 0067  02.08.2006

@<TRIPOS>MOLECULE
ASD01001179
  58   61    0    0    0
SMALL
NO_CHARGES


@<TRIPOS>ATOM
   1 C1            -0.0125     1.3712    -0.0098 C.ar    
   2 C2             1.2847     2.1381    -0.0250 C.3     
   3 C3             1.4542     2.8451    -1.3727 C.3     
   4 N4             1.2656     3.1709     1.0210 N.pl3   
   5 C5             1.3560     1.8361    -2.5138 C.3     
   6 C6             2.8049     3.5561    -1.4001 C.3     
   7 C7             2.1948     4.2153     0.9597 C.ar    
   8 C8             2.5438     0.8714    -2.4492 C.3     
   9 C9             2.9485     4.4354    -0.1827 C.ar    
  10 O10            3.8628     2.5944    -1.3964 O.3     
  11 C11            2.3571     5.0407     2.0673 C.ar    
  12 C12            3.8417     1.6838    -2.4959 C.3     
  13 C13            3.8554     5.4803    -0.2154 C.ar    
  14 C14            3.2649     6.0800     2.0277 C.ar    
  15 C15            4.0132     6.2999     0.8860 C.ar    
  16 C16            5.0028     7.4356     0.8425 C.3     
  17 C17            4.6250     8.3984    -0.2849 C.3     
  18 C18            4.9824     8.1812     2.1784 C.3     
  19 C19            6.4059     6.8800     0.5899 C.3     
  20 C20           -0.0102     0.0071    -0.2368 C.ar    
  21 C21           -1.1973    -0.6986    -0.2235 C.ar    
  22 C22           -2.3941    -0.0369     0.0187 C.ar    
  23 C23           -2.3929     1.3329     0.2468 C.ar    
  24 C24           -1.2018     2.0321     0.2369 C.ar    
  25 N25           -3.5985    -0.7489     0.0324 N.am    
  26 C26           -3.6331    -2.0055     0.5185 C.2     
  27 O27           -2.6063    -2.5499     0.8655 O.2     
  28 C28           -4.9474    -2.7341     0.6308 C.3     
  29 H29            2.1188     1.4566     0.1423 H       
  30 H30            0.6692     3.5927    -1.4866 H       
  31 H31            0.6185     3.1292     1.7425 H       
  32 H32            0.4266     1.2741    -2.4225 H       
  33 H33            1.3686     2.3640    -3.4673 H       
  34 H34            2.8750     4.1675    -2.2998 H       
  35 H35            2.5022     0.3022    -1.5205 H       
  36 H36            2.5081     0.1904    -3.2995 H       
  37 H37            1.7722     4.8687     2.9588 H       
  38 H38            4.6959     1.0102    -2.4277 H       
  39 H39            3.8893     2.2410    -3.4316 H       
  40 H40            4.4423     5.6555    -1.1049 H       
  41 H41            3.3903     6.7211     2.8877 H       
  42 H42            3.6254     8.7942    -0.1049 H       
  43 H43            5.3408     9.2199    -0.3163 H       
  44 H44            4.6395     7.8672    -1.2365 H       
  45 H45            5.2516     7.4952     2.9815 H       
  46 H46            5.6982     9.0026     2.1469 H       
  47 H47            3.9829     8.5770     2.3583 H       
  48 H48            6.4204     6.3488    -0.3617 H       
  49 H49            7.1217     7.7015     0.5585 H       
  50 H50            6.6751     6.1941     1.3931 H       
  51 H51            0.9208    -0.5068    -0.4250 H       
  52 H52           -1.1950    -1.7638    -0.4015 H       
  53 H53           -3.3219     1.8504     0.4354 H       
  54 H54           -1.2002     3.0974     0.4145 H       
  55 H55           -4.4087    -0.3381    -0.3079 H       
  56 H56           -5.4001    -2.8213    -0.3570 H       
  57 H57           -4.7772    -3.7293     1.0416 H       
  58 H58           -5.6156    -2.1788     1.2889 H       
@<TRIPOS>BOND
   1    1   20 ar
   2    1    2 1
   3    1   24 ar
   4    2    3 1
   5    2    4 1
   6    2   29 1
   7    3    5 1
   8    3    6 1
   9    3   30 1
  10    4    7 1
  11    4   31 1
  12    5    8 1
  13    5   32 1
  14    5   33 1
  15    6    9 1
  16    6   10 1
  17    6   34 1
  18    7    9 ar
  19    7   11 ar
  20    8   12 1
  21    8   35 1
  22    8   36 1
  23    9   13 ar
  24   10   12 1
  25   11   14 ar
  26   11   37 1
  27   12   38 1
  28   12   39 1
  29   13   15 ar
  30   13   40 1
  31   14   15 ar
  32   14   41 1
  33   15   16 1
  34   16   17 1
  35   16   18 1
  36   16   19 1
  37   17   42 1
  38   17   43 1
  39   17   44 1
  40   18   45 1
  41   18   46 1
  42   18   47 1
  43   19   48 1
  44   19   49 1
  45   19   50 1
  46   20   21 ar
  47   20   51 1
  48   21   22 ar
  49   21   52 1
  50   22   23 ar
  51   22   25 1
  52   23   24 ar
  53   23   53 1
  54   24   54 1
  55   25   26 am
  56   25   55 1
  57   26   27 2
  58   26   28 1
  59   28   56 1
  60   28   57 1
  61   28   58 1

#	End of record

