#	Name: ASD07301348
#	Creating user name:	WinNT
#	Creation time:	15. 06. 2019 21:11

#	Modifying user name:	WinNT
#	Modification time:	15. 06. 2019 21:11

#	Program:	/corina/corina34_cracker 3.40 0067  02.08.2006

@<TRIPOS>MOLECULE
ASD07301348
  52   57    0    0    0
SMALL
NO_CHARGES


@<TRIPOS>ATOM
   1 C1             0.0890     1.9376     0.0491 C.2     
   2 C2            -0.0885     0.4764     0.0246 C.2     
   3 C3             1.0783    -0.3146    -0.1056 C.2     
   4 C4             2.2707     0.3260    -0.1981 C.2     
   5 N5             2.3364     1.6764    -0.1663 N.pl3   
   6 N6             1.3053     2.4289    -0.0498 N.2     
   7 O7            -1.1960    -0.0321     0.1132 O.2     
   8 N8            -1.1420     3.9823     0.9161 N.pl3   
   9 N9            -2.4248     4.5208     0.7565 N.2     
  10 C10           -3.1118     3.7428    -0.0414 C.2     
  11 C11           -2.3043     2.6735    -0.4288 C.2     
  12 C12           -1.0771     2.8352     0.1761 C.2     
  13 C13           -0.1088     4.5251     1.6905 C.ar    
  14 C14            0.1355     5.8919     1.6649 C.ar    
  15 C15            1.1551     6.4241     2.4295 C.ar    
  16 C16            1.9326     5.5974     3.2197 C.ar    
  17 C17            1.6918     4.2360     3.2474 C.ar    
  18 C18            0.6698     3.6984     2.4898 C.ar    
  19 C19            3.5932     2.2825    -0.2652 C.ar    
  20 C20            3.6914     3.6609    -0.3955 C.ar    
  21 C21            4.9403     4.2583    -0.4928 C.ar    
  22 C22            6.0882     3.4749    -0.4595 C.ar    
  23 C23            5.9867     2.1035    -0.3298 C.ar    
  24 C24            4.7449     1.5060    -0.2273 C.ar    
  25 S25            5.0708     6.0076    -0.6589 S.3     
  26 C26            4.8922     6.1633    -2.4049 C.2     
  27 N27            4.6228     5.1776    -3.2251 N.2     
  28 C28            4.5548     5.6484    -4.4976 C.ar    
  29 C29            4.8033     7.0302    -4.4415 C.ar    
  30 N30            5.0084     7.3309    -3.1051 N.pl3   
  31 C31            4.3032     5.0447    -5.7320 C.ar    
  32 C32            4.3013     5.8075    -6.8787 C.ar    
  33 C33            4.5472     7.1708    -6.8176 C.ar    
  34 C34            4.7975     7.7823    -5.6059 C.ar    
  35 H35            1.0212    -1.3928    -0.1302 H       
  36 H36            3.1789    -0.2498    -0.2979 H       
  37 H37           -4.1349     3.9023    -0.3486 H       
  38 H38           -2.5898     1.8641    -1.0844 H       
  39 H39           -0.4709     6.5380     1.0474 H       
  40 H40            1.3456     7.4870     2.4100 H       
  41 H41            2.7297     6.0159     3.8162 H       
  42 H42            2.3008     3.5930     3.8655 H       
  43 H43            0.4791     2.6357     2.5155 H       
  44 H44            2.7979     4.2672    -0.4214 H       
  45 H45            7.0604     3.9390    -0.5356 H       
  46 H46            6.8800     1.4971    -0.3045 H       
  47 H47            4.6693     0.4338    -0.1219 H       
  48 H48            5.2008     8.2068    -2.7354 H       
  49 H49            4.1113     3.9833    -5.7870 H       
  50 H50            4.1071     5.3402    -7.8329 H       
  51 H51            4.5428     7.7579    -7.7240 H       
  52 H52            4.9879     8.8446    -5.5650 H       
@<TRIPOS>BOND
   1    1    2 1
   2    1    6 2
   3    1   12 1
   4    2    3 1
   5    2    7 2
   6    3    4 2
   7    3   35 1
   8    4    5 1
   9    4   36 1
  10    5    6 1
  11    5   19 1
  12    8    9 1
  13    8   12 1
  14    8   13 1
  15    9   10 2
  16   10   11 1
  17   10   37 1
  18   11   12 2
  19   11   38 1
  20   13   14 ar
  21   13   18 ar
  22   14   15 ar
  23   14   39 1
  24   15   16 ar
  25   15   40 1
  26   16   17 ar
  27   16   41 1
  28   17   18 ar
  29   17   42 1
  30   18   43 1
  31   19   20 ar
  32   19   24 ar
  33   20   21 ar
  34   20   44 1
  35   21   22 ar
  36   21   25 1
  37   22   23 ar
  38   22   45 1
  39   23   24 ar
  40   23   46 1
  41   24   47 1
  42   25   26 1
  43   26   27 2
  44   26   30 1
  45   27   28 1
  46   28   29 ar
  47   28   31 ar
  48   29   30 1
  49   29   34 ar
  50   30   48 1
  51   31   32 ar
  52   31   49 1
  53   32   33 ar
  54   32   50 1
  55   33   34 ar
  56   33   51 1
  57   34   52 1

#	End of record

