#	Name: ASD01900823
#	Creating user name:	WinNT
#	Creation time:	15. 06. 2019 19:52

#	Modifying user name:	WinNT
#	Modification time:	15. 06. 2019 19:52

#	Program:	/corina/corina34_cracker 3.40 0067  02.08.2006

@<TRIPOS>MOLECULE
ASD01900823
  32   34    0    0    0
SMALL
NO_CHARGES


@<TRIPOS>ATOM
   1 C1             0.1558     1.5217     0.1025 C.ar    
   2 N2             0.0916     0.1306     0.0856 N.pl3   
   3 C3             1.2497    -0.6152    -0.0771 C.2     
   4 C4            -1.0189     2.2647     0.1524 C.ar    
   5 N5             1.3344     2.1237     0.0762 N.ar    
   6 C6             1.4405     3.4391     0.0908 C.ar    
   7 C7             0.3146     4.2401     0.1344 C.ar    
   8 C8            -0.9419     3.6457     0.1687 C.ar    
   9 N9             1.3264    -1.9086    -0.0012 N.2     
  10 C10            2.5215    -2.4515    -0.1853 C.2     
  11 C11            3.5174    -1.5847    -0.4308 C.2     
  12 S12            2.8449     0.0441    -0.4266 S.3     
  13 C13            2.7442    -3.9190    -0.1239 C.2     
  14 C14            2.2890    -4.7629     0.8457 C.2     
  15 N15            2.7062    -6.0079     0.5321 N.pl3   
  16 N16            3.4375    -5.9360    -0.6598 N.2     
  17 C17            3.4584    -4.6917    -1.0595 C.2     
  18 C18            1.4687    -4.3760     2.0493 C.3     
  19 F19            0.4341     5.5857     0.1495 F       
  20 C20            4.9608    -1.9435    -0.6732 C.3     
  21 H21           -0.7630    -0.3168     0.1877 H       
  22 H22           -1.9786     1.7700     0.1778 H       
  23 H23            2.4191     3.8954     0.0688 H       
  24 H24           -1.8373     4.2485     0.2030 H       
  25 H25            2.5303    -6.8128     1.0441 H       
  26 H26            3.9455    -4.3198    -1.9488 H       
  27 H27            0.4090    -4.4360     1.8013 H       
  28 H28            1.6883    -5.0558     2.8725 H       
  29 H29            1.7156    -3.3562     2.3445 H       
  30 H30            5.1410    -2.0203    -1.7455 H       
  31 H31            5.6032    -1.1706    -0.2513 H       
  32 H32            5.1824    -2.8992    -0.1982 H       
@<TRIPOS>BOND
   1    1    2 1
   2    1    4 ar
   3    1    5 ar
   4    2    3 1
   5    2   21 1
   6    3    9 2
   7    3   12 1
   8    4    8 ar
   9    4   22 1
  10    5    6 ar
  11    6    7 ar
  12    6   23 1
  13    7    8 ar
  14    7   19 1
  15    8   24 1
  16    9   10 1
  17   10   11 2
  18   10   13 1
  19   11   12 1
  20   11   20 1
  21   13   14 2
  22   13   17 1
  23   14   15 1
  24   14   18 1
  25   15   16 1
  26   15   25 1
  27   16   17 2
  28   17   26 1
  29   18   27 1
  30   18   28 1
  31   18   29 1
  32   20   30 1
  33   20   31 1
  34   20   32 1

#	End of record

