#	Name: ASD01912421
#	Creating user name:	WinNT
#	Creation time:	15. 06. 2019 19:59

#	Modifying user name:	WinNT
#	Modification time:	15. 06. 2019 19:59

#	Program:	/corina/corina34_cracker 3.40 0067  02.08.2006

@<TRIPOS>MOLECULE
ASD01912421
  44   46    0    0    0
SMALL
NO_CHARGES


@<TRIPOS>ATOM
   1 C1            -0.8672     0.0686    -1.8503 C.1     
   2 C2            -0.8258     1.4925    -1.7039 C.ar    
   3 C3             0.3851     2.1449    -1.4554 C.ar    
   4 C4             0.3689     3.5375    -1.3214 C.ar    
   5 C5            -0.8487     4.2157    -1.4405 C.ar    
   6 N6            -1.9668     3.5605    -1.6752 N.ar    
   7 C7            -1.9942     2.2504    -1.8132 C.ar    
   8 N8            -0.9001    -1.0610    -1.9664 N.1     
   9 C9             1.5800     4.2575    -1.0657 C.1     
  10 C10            2.5730     4.8477    -0.8560 C.1     
  11 C11            3.7842     5.5676    -0.6003 C.2     
  12 N12            3.8400     9.6200    -1.1200 N.3     
  13 C13            5.0849     8.8455    -1.1979 C.3     
  14 C14            5.0225     7.6800    -0.2040 C.3     
  15 C15            3.7570     6.8935    -0.4746 C.2     
  16 C16            2.4596     7.6648    -0.5978 C.3     
  17 C17            2.6849     8.8312    -1.5666 C.3     
  18 C18            3.9438    10.8037    -1.8413 C.ar    
  19 C19            3.3241    11.9561    -1.3680 C.ar    
  20 C20            3.4360    13.1269    -2.0955 C.ar    
  21 C21            4.1665    13.1063    -3.2765 C.ar    
  22 C22            4.7551    11.9273    -3.6869 C.ar    
  23 N23            4.6359    10.8258    -2.9697 N.ar    
  24 N24            2.6204    11.9314    -0.2104 N.pl3   
  25 O25            1.9951    12.9150     0.1433 O.2     
  26 O26            2.6131    10.9256     0.4765 O.2     
  27 C27            5.5486    11.8986    -4.9677 C.3     
  28 H28            1.3073     1.5895    -1.3688 H       
  29 H29           -0.8723     5.2906    -1.3384 H       
  30 H30           -2.9337     1.7553    -2.0096 H       
  31 H31            4.7196     5.0357    -0.5095 H       
  32 H32            5.2079     8.4555    -2.2083 H       
  33 H33            5.9294     9.4889    -0.9510 H       
  34 H34            5.8914     7.0356    -0.3381 H       
  35 H35            5.0044     8.0664     0.8150 H       
  36 H36            1.6785     7.0107    -0.9853 H       
  37 H37            2.1664     8.0496     0.3790 H       
  38 H38            1.7978     9.4644    -1.5858 H       
  39 H39            2.8754     8.4417    -2.5666 H       
  40 H40            2.9655    14.0368    -1.7531 H       
  41 H41            4.2726    14.0037    -3.8680 H       
  42 H42            6.5911    12.1350    -4.7547 H       
  43 H43            5.4848    10.9055    -5.4125 H       
  44 H44            5.1438    12.6345    -5.6624 H       
@<TRIPOS>BOND
   1    1    2 1
   2    1    8 3
   3    2    3 ar
   4    2    7 ar
   5    3    4 ar
   6    3   28 1
   7    4    5 ar
   8    4    9 1
   9    5    6 ar
  10    5   29 1
  11    6    7 ar
  12    7   30 1
  13    9   10 3
  14   10   11 1
  15   11   15 2
  16   11   31 1
  17   12   13 1
  18   12   17 1
  19   12   18 1
  20   13   14 1
  21   13   32 1
  22   13   33 1
  23   14   15 1
  24   14   34 1
  25   14   35 1
  26   15   16 1
  27   16   17 1
  28   16   36 1
  29   16   37 1
  30   17   38 1
  31   17   39 1
  32   18   19 ar
  33   18   23 ar
  34   19   20 ar
  35   19   24 1
  36   20   21 ar
  37   20   40 1
  38   21   22 ar
  39   21   41 1
  40   22   23 ar
  41   22   27 1
  42   24   25 2
  43   24   26 2
  44   27   42 1
  45   27   43 1
  46   27   44 1

#	End of record

