#	Name: ASD04840057
#	Creating user name:	WinNT
#	Creation time:	15. 06. 2019 20:52

#	Modifying user name:	WinNT
#	Modification time:	15. 06. 2019 20:52

#	Program:	/corina/corina34_cracker 3.40 0067  02.08.2006

@<TRIPOS>MOLECULE
ASD04840057
  51   53    0    0    0
SMALL
NO_CHARGES


@<TRIPOS>ATOM
   1 C1            -0.1940     2.4466    -1.2139 C.ar    
   2 C2            -0.4252     1.0833    -1.3325 C.ar    
   3 C3             0.5936     0.1776    -1.1319 C.ar    
   4 C4             1.8676     0.6317    -0.8076 C.ar    
   5 C5             2.0969     2.0149    -0.6889 C.ar    
   6 C6             1.0500     2.9147    -0.8960 C.ar    
   7 N7             3.0634    -0.0015    -0.5526 N.pl3   
   8 C8             4.0318     0.9257    -0.2794 C.2     
   9 C9             3.5133     2.1621    -0.3453 C.2     
  10 C10            4.2489     3.4563    -0.1105 C.3     
  11 C11            4.3082     3.7440     1.3911 C.3     
  12 C12            6.1066     0.5406    -2.4034 C.3     
  13 C13            7.2261    -0.1431    -3.2152 C.3     
  14 C14            8.1536    -0.8270    -2.1955 C.3     
  15 C15            7.5653    -0.5350    -0.7996 C.3     
  16 P16            5.3580     5.2042     1.6891 P.3     
  17 O17            6.7237     4.9416     1.1828 O.2     
  18 O18            4.7372     6.4769     0.9229 O.3     
  19 O19            5.4204     5.5069     3.2691 O.3     
  20 C20            5.4678     0.6061     0.0476 C.3     
  21 C21            5.5308    -0.1647     1.3678 C.3     
  22 C22            6.0676    -0.2482    -1.0710 C.3     
  23 P23            2.6260     4.0675     2.0147 P.3     
  24 O24            1.8966     4.9182     1.0479 O.2     
  25 O25            1.8441     2.6722     2.1983 O.3     
  26 O26            2.7157     4.8232     3.4335 O.3     
  27 H27           -1.0026     3.1434    -1.3784 H       
  28 H28           -1.4138     0.7287    -1.5843 H       
  29 H29            0.4035    -0.8814    -1.2258 H       
  30 H30            1.2226     3.9770    -0.8057 H       
  31 H31            3.1990    -0.9619    -0.5646 H       
  32 H32            5.2617     3.3754    -0.5052 H       
  33 H33            3.7259     4.2683    -0.6156 H       
  34 H34            4.7285     2.8824     1.9098 H       
  35 H35            6.3524     1.5866    -2.2204 H       
  36 H36            5.1526     0.4574    -2.9240 H       
  37 H37            6.7986    -0.8863    -3.8882 H       
  38 H38            7.7821     0.6014    -3.7850 H       
  39 H39            8.1762    -1.9021    -2.3737 H       
  40 H40            9.1597    -0.4144    -2.2704 H       
  41 H41            7.6759    -1.4031    -0.1498 H       
  42 H42            8.0468     0.3373    -0.3576 H       
  43 H43            3.8414     6.7072     1.2049 H       
  44 H44            5.9632     6.2727     3.5017 H       
  45 H45            6.0342     1.5328     0.1405 H       
  46 H46            5.1035     0.4440     2.1646 H       
  47 H47            4.9644    -1.0913     1.2748 H       
  48 H48            6.5694    -0.3958     1.6043 H       
  49 H49            5.5114    -1.1782    -1.1887 H       
  50 H50            1.6647     2.2096     1.3683 H       
  51 H51            3.1753     5.6733     3.3980 H       
@<TRIPOS>BOND
   1    1    2 ar
   2    1    6 ar
   3    1   27 1
   4    2    3 ar
   5    2   28 1
   6    3    4 ar
   7    3   29 1
   8    4    5 ar
   9    4    7 1
  10    5    6 ar
  11    5    9 1
  12    6   30 1
  13    7    8 1
  14    7   31 1
  15    8    9 2
  16    8   20 1
  17    9   10 1
  18   10   11 1
  19   10   32 1
  20   10   33 1
  21   11   16 1
  22   11   23 1
  23   11   34 1
  24   12   13 1
  25   12   22 1
  26   12   35 1
  27   12   36 1
  28   13   14 1
  29   13   37 1
  30   13   38 1
  31   14   15 1
  32   14   39 1
  33   14   40 1
  34   15   22 1
  35   15   41 1
  36   15   42 1
  37   16   17 2
  38   16   18 1
  39   16   19 1
  40   18   43 1
  41   19   44 1
  42   20   21 1
  43   20   22 1
  44   20   45 1
  45   21   46 1
  46   21   47 1
  47   21   48 1
  48   22   49 1
  49   23   24 2
  50   23   25 1
  51   23   26 1
  52   25   50 1
  53   26   51 1

#	End of record

