#	Name: ASD01885739
#	Creating user name:	WinNT
#	Creation time:	15. 06. 2019 19:50

#	Modifying user name:	WinNT
#	Modification time:	15. 06. 2019 19:50

#	Program:	/corina/corina34_cracker 3.40 0067  02.08.2006

@<TRIPOS>MOLECULE
ASD01885739
  58   60    0    0    0
SMALL
NO_CHARGES


@<TRIPOS>ATOM
   1 C1            -0.0160     1.3291     0.0093 C.ar    
   2 C2            -1.2522     2.0239     0.0189 C.ar    
   3 C3            -2.4598     1.2808     0.0210 C.ar    
   4 C4            -2.3703    -0.1044     0.0135 C.ar    
   5 C5            -1.1104    -0.7137     0.0043 C.ar    
   6 N6             0.0021    -0.0041     0.0020 N.ar    
   7 C7             1.1365     3.4282     0.0092 C.ar    
   8 C8            -0.0805     4.1063     0.0248 C.ar    
   9 C9            -1.2606     3.4245     0.0266 C.ar    
  10 C10           -3.7750     1.9611     0.0313 C.ar    
  11 C11           -1.0235    -2.1940    -0.0038 C.2     
  12 C12            2.4228     4.2133     0.0076 C.3     
  13 C13            1.1823     2.0683     0.0019 C.ar    
  14 N14            0.1812    -2.7982    -0.0132 N.am    
  15 O15           -2.0383    -2.8621    -0.0018 O.2     
  16 C16           -4.7577     1.5985    -0.8903 C.ar    
  17 C17           -5.9812     2.2347    -0.8763 C.ar    
  18 C18           -6.2354     3.2328     0.0512 C.ar    
  19 C19           -5.2623     3.5968     0.9685 C.ar    
  20 C20           -4.0376     2.9626     0.9663 C.ar    
  21 F21           -7.4355     3.8531     0.0609 F       
  22 N22            2.8509     4.4547     1.3920 N.3     
  23 C23            4.2114     5.0057     1.4336 C.3     
  24 C24            4.6777     5.1075     2.8877 C.3     
  25 C25            3.7167     6.0118     3.6645 C.3     
  26 C26            2.2990     5.4419     3.5648 C.3     
  27 C27            1.9018     5.3303     2.0912 C.3     
  28 O28            4.1147     6.0651     5.0360 O.3     
  29 H29           -3.2662    -0.7075     0.0151 H       
  30 H30           -0.0888     5.1862     0.0355 H       
  31 H31           -2.1976     3.9615     0.0335 H       
  32 H32            3.1928     3.6481    -0.5175 H       
  33 H33            2.2656     5.1673    -0.4957 H       
  34 H34            2.1340     1.5579    -0.0092 H       
  35 H35            0.9913    -2.2648    -0.0147 H       
  36 H36            0.2380    -3.7665    -0.0184 H       
  37 H37           -4.5605     0.8212    -1.6137 H       
  38 H38           -6.7425     1.9551    -1.5896 H       
  39 H39           -5.4648     4.3756     1.6888 H       
  40 H40           -3.2799     3.2470     1.6815 H       
  41 H41            4.8854     4.3510     0.8811 H       
  42 H42            4.2159     5.9970     0.9805 H       
  43 H43            4.6867     4.1146     3.3373 H       
  44 H44            5.6815     5.5310     2.9192 H       
  45 H45            3.7367     7.0152     3.2392 H       
  46 H46            2.2706     4.4543     4.0252 H       
  47 H47            1.6035     6.1043     4.0801 H       
  48 H48            1.9170     6.3202     1.6350 H       
  49 H49            0.8982     4.9115     2.0162 H       
  50 H50            3.5488     6.6216     5.5884 H       
  51 C51           11.6834    13.9223    11.4936 C.3     
  52 C52           11.7041    12.3924    11.4851 C.3     
  53 H53           12.7060    14.2996    11.4858 H       
  54 H54           11.1562    14.2834    10.6105 H       
  55 H55           11.1732    14.2738    12.3904 H       
  56 H56           12.2313    12.0314    12.3682 H       
  57 H57           10.6815    12.0152    11.4929 H       
  58 H58           12.2143    12.0409    10.5884 H       
@<TRIPOS>BOND
   1    1    6 ar
   2    1   13 ar
   3    1    2 ar
   4    2    3 ar
   5    2    9 ar
   6    3   10 1
   7    3    4 ar
   8    4    5 ar
   9    4   29 1
  10    5   11 1
  11    5    6 ar
  12    7   12 1
  13    7    8 ar
  14    7   13 ar
  15    8    9 ar
  16    8   30 1
  17    9   31 1
  18   10   16 ar
  19   10   20 ar
  20   11   14 am
  21   11   15 2
  22   12   22 1
  23   12   32 1
  24   12   33 1
  25   13   34 1
  26   14   35 1
  27   14   36 1
  28   16   17 ar
  29   16   37 1
  30   17   18 ar
  31   17   38 1
  32   18   19 ar
  33   18   21 1
  34   19   20 ar
  35   19   39 1
  36   20   40 1
  37   22   23 1
  38   22   27 1
  39   23   24 1
  40   23   41 1
  41   23   42 1
  42   24   25 1
  43   24   43 1
  44   24   44 1
  45   25   26 1
  46   25   28 1
  47   25   45 1
  48   26   27 1
  49   26   46 1
  50   26   47 1
  51   27   48 1
  52   27   49 1
  53   28   50 1
  54   51   52 1
  55   51   53 1
  56   51   54 1
  57   51   55 1
  58   52   56 1
  59   52   57 1
  60   52   58 1

#	End of record

