#	Name: ASD01813968
#	Creating user name:	WinNT
#	Creation time:	15. 06. 2019 19:31

#	Modifying user name:	WinNT
#	Modification time:	15. 06. 2019 19:31

#	Program:	/corina/corina34_cracker 3.40 0067  02.08.2006

@<TRIPOS>MOLECULE
ASD01813968
  45   49    0    0    0
SMALL
NO_CHARGES


@<TRIPOS>ATOM
   1 N1            -0.0160     1.3253     0.0093 N.ar    
   2 C2             0.0021    -0.0041     0.0020 C.ar    
   3 C3             1.2375    -0.6893    -0.0135 C.ar    
   4 C4             2.4284     0.0373    -0.0229 C.ar    
   5 C5             2.3437     1.4182    -0.0166 C.ar    
   6 C6             1.0973     2.0272     0.0025 C.ar    
   7 C7             1.2182    -2.1583    -0.0201 C.2     
   8 N8            -1.1442    -0.7282     0.0101 N.2     
   9 C9            -1.1315    -2.0269     0.0039 C.2     
  10 N10            0.0076    -2.7644    -0.0109 N.am    
  11 C11           -0.0733    -4.2272    -0.0174 C.3     
  12 F12           -2.4521    -4.6081     1.4366 F       
  13 C13           -1.2920    -4.9026     2.0633 C.ar    
  14 C14           -0.0867    -4.7359     1.4011 C.ar    
  15 C15            1.1064    -5.0355     2.0382 C.ar    
  16 C16           -1.3094    -5.3642     3.3660 C.ar    
  17 C17           -0.1110    -5.6679     4.0118 C.ar    
  18 C18            1.0995    -5.5032     3.3388 C.ar    
  19 C19           -0.1238    -6.1624     5.4074 C.ar    
  20 C20            0.6258    -7.3625     5.7821 C.ar    
  21 C21           -0.8385    -5.4982     6.3843 C.ar    
  22 C22           -0.8596    -5.9518     7.7006 C.ar    
  23 C23           -0.1889    -7.0592     8.1031 C.ar    
  24 C24            0.5763    -7.8073     7.1836 C.ar    
  25 C25            1.4310    -8.2581     5.1132 C.2     
  26 N26            1.8497    -9.1761     5.9967 N.pl3   
  27 N27            1.3196    -8.8965     7.2617 N.2     
  28 C28            2.7274   -10.3064     5.6835 C.3     
  29 O29            2.2495    -2.8047    -0.0338 O.2     
  30 F30            2.2786    -4.8708     1.3870 F       
  31 H31            3.3859    -0.4622    -0.0344 H       
  32 H32            3.2418     2.0180    -0.0232 H       
  33 H33            1.0391     3.1056     0.0088 H       
  34 H34           -2.0776    -2.5476     0.0109 H       
  35 H35           -0.9872    -4.5383    -0.5236 H       
  36 H36            0.7900    -4.6365    -0.5420 H       
  37 H37           -2.2493    -5.4897     3.8829 H       
  38 H38            2.0301    -5.7372     3.8344 H       
  39 H39           -1.3920    -4.6086     6.1222 H       
  40 H40           -1.4328    -5.3991     8.4302 H       
  41 H41           -0.2372    -7.3687     9.1367 H       
  42 H42            1.6805    -8.2268     4.0628 H       
  43 H43            3.7669   -10.0074     5.8183 H       
  44 H44            2.4995   -11.1388     6.3492 H       
  45 H45            2.5689   -10.6139     4.6498 H       
@<TRIPOS>BOND
   1    1    2 ar
   2    1    6 ar
   3    2    3 ar
   4    2    8 1
   5    3    4 ar
   6    3    7 1
   7    4    5 ar
   8    4   31 1
   9    5    6 ar
  10    5   32 1
  11    6   33 1
  12    7   10 am
  13    7   29 2
  14    8    9 2
  15    9   10 1
  16    9   34 1
  17   10   11 1
  18   11   14 1
  19   11   35 1
  20   11   36 1
  21   12   13 1
  22   13   16 ar
  23   13   14 ar
  24   14   15 ar
  25   15   18 ar
  26   15   30 1
  27   16   17 ar
  28   16   37 1
  29   17   18 ar
  30   17   19 1
  31   18   38 1
  32   19   21 ar
  33   19   20 ar
  34   20   25 2
  35   20   24 ar
  36   21   22 ar
  37   21   39 1
  38   22   23 ar
  39   22   40 1
  40   23   24 ar
  41   23   41 1
  42   24   27 2
  43   25   26 1
  44   25   42 1
  45   26   27 1
  46   26   28 1
  47   28   43 1
  48   28   44 1
  49   28   45 1

#	End of record

