#	Name: ASD06710030
#	Creating user name:	WinNT
#	Creation time:	15. 06. 2019 21:08

#	Modifying user name:	WinNT
#	Modification time:	15. 06. 2019 21:08

#	Program:	/corina/corina34_cracker 3.40 0067  02.08.2006

@<TRIPOS>MOLECULE
ASD06710030
  39   41    0    0    0
SMALL
NO_CHARGES


@<TRIPOS>ATOM
   1 C1             0.4373     0.4610    -1.1068 C.ar    
   2 C2             0.6591    -0.8771    -0.9648 C.ar    
   3 C3             1.9050    -1.3498    -0.5631 C.ar    
   4 C4             2.9374    -0.4733    -0.3020 C.ar    
   5 C5             2.7334     0.8963    -0.4409 C.ar    
   6 C6             1.4709     1.3711    -0.8473 C.ar    
   7 N7             3.5451     1.9911    -0.2586 N.pl3   
   8 C8             2.8206     3.1339    -0.5413 C.2     
   9 C9             1.5579     2.7830    -0.9006 C.2     
  10 C10            3.3336     4.5092    -0.4639 C.2     
  11 N11            4.6255     4.7298    -0.1494 N.am    
  12 C12            5.1601     6.0937    -0.1632 C.3     
  13 F13            2.1048    -2.6790    -0.4272 F       
  14 O14            2.5921     5.4483    -0.6837 O.2     
  15 C15            5.4951     3.6058     0.2063 C.3     
  16 C16            6.9374     4.0988     0.3388 C.3     
  17 C17            5.0363     3.0074     1.5377 C.3     
  18 C18            4.8363     6.7734     1.1423 C.2     
  19 O19            3.6719     7.3673     1.4510 O.3     
  20 C20            3.7396     7.8653     2.6964 C.2     
  21 C21            4.9573     7.5917     3.1980 C.2     
  22 C22            5.6624     6.8832     2.1981 C.2     
  23 H23           -0.5316     0.8184    -1.4230 H       
  24 H24           -0.1393    -1.5762    -1.1655 H       
  25 H25            3.9009    -0.8487     0.0096 H       
  26 H26            4.4732     1.9657     0.0222 H       
  27 H27            0.7634     3.4600    -1.1778 H       
  28 H28            6.2414     6.0588    -0.2962 H       
  29 H29            4.7108     6.6518    -0.9846 H       
  30 H30            5.4414     2.8444    -0.5719 H       
  31 H31            6.9793     4.9075     1.0684 H       
  32 H32            7.5731     3.2776     0.6697 H       
  33 H33            7.2872     4.4626    -0.6273 H       
  34 H34            3.9627     2.8223     1.5021 H       
  35 H35            5.5612     2.0686     1.7142 H       
  36 H36            5.2581     3.7051     2.3452 H       
  37 H37            2.9503     8.3957     3.2083 H       
  38 H38            5.3246     7.8587     4.1779 H       
  39 H39            6.6716     6.5048     2.2678 H       
@<TRIPOS>BOND
   1    1    2 ar
   2    1    6 ar
   3    1   23 1
   4    2    3 ar
   5    2   24 1
   6    3    4 ar
   7    3   13 1
   8    4    5 ar
   9    4   25 1
  10    5    7 1
  11    5    6 ar
  12    6    9 1
  13    7    8 1
  14    7   26 1
  15    8    9 2
  16    8   10 1
  17    9   27 1
  18   10   11 am
  19   10   14 2
  20   11   12 1
  21   11   15 1
  22   12   18 1
  23   12   28 1
  24   12   29 1
  25   15   16 1
  26   15   17 1
  27   15   30 1
  28   16   31 1
  29   16   32 1
  30   16   33 1
  31   17   34 1
  32   17   35 1
  33   17   36 1
  34   18   19 1
  35   18   22 2
  36   19   20 1
  37   20   21 2
  38   20   37 1
  39   21   22 1
  40   21   38 1
  41   22   39 1

#	End of record

