#	Name: ASD01410650
#	Creating user name:	WinNT
#	Creation time:	15. 06. 2019 19:18

#	Modifying user name:	WinNT
#	Modification time:	15. 06. 2019 19:18

#	Program:	/corina/corina34_cracker 3.40 0067  02.08.2006

@<TRIPOS>MOLECULE
ASD01410650
  80   83    0    0    0
SMALL
NO_CHARGES


@<TRIPOS>ATOM
   1 C1             0.1549    -0.2082     3.5421 C.ar    
   2 C2             1.0033    -0.6264     4.5578 C.ar    
   3 C3             2.3306    -0.8759     4.2695 C.ar    
   4 N4             2.7973    -0.7216     3.0453 N.ar    
   5 C5             2.0200    -0.3248     2.0510 C.ar    
   6 C6             0.6748    -0.0557     2.2684 C.ar    
   7 O7             2.5418    -0.1792     0.8072 O.3     
   8 C8             3.8798    -0.3632     0.6507 C.ar    
   9 C9             4.4213    -1.6382     0.7630 C.ar    
  10 C10            5.7782    -1.8363     0.6060 C.ar    
  11 C11            6.6126    -0.7609     0.3348 C.ar    
  12 C12            6.0721     0.5290     0.2202 C.ar    
  13 C13            4.6967     0.7181     0.3747 C.ar    
  14 N14            7.9832    -0.9614     0.1772 N.am    
  15 C15            8.4878    -1.2399    -1.0411 C.2     
  16 C16            8.8749    -0.8695     1.3359 C.3     
  17 O17            9.6658    -1.5005    -1.1644 O.2     
  18 C18            7.5882    -1.2275    -2.2501 C.3     
  19 C19            8.0979    -2.2424    -3.2754 C.3     
  20 C20            7.1846    -2.2298    -4.5029 C.3     
  21 C21            7.1855    -0.8319    -5.1250 C.3     
  22 C22            6.6759     0.1829    -4.0996 C.3     
  23 C23            7.5892     0.1703    -2.8722 C.3     
  24 C24            6.2722    -0.8193    -6.3524 C.3     
  25 C25            9.9809     0.1480     1.0488 C.3     
  26 C26            9.5001    -2.2391     1.6082 C.3     
  27 C27            0.4818    -0.8057     5.9603 C.3     
  28 O28            8.4874    -3.1459     2.0490 O.3     
  29 N29            0.0021    -2.1836     6.1319 N.3     
  30 C30            8.9684    -4.4613     2.3323 C.3     
  31 C31           -0.2928    -2.4667     7.5440 C.3     
  32 C32           -0.8448    -3.8892     7.6692 C.3     
  33 O33            0.0988    -4.8116     7.1177 O.3     
  34 C34            0.4087    -4.5655     5.7433 C.3     
  35 C35            0.9734    -3.1498     5.5987 C.3     
  36 C36            6.9502     1.6775    -0.0672 C.2     
  37 O37            8.1250     1.4959    -0.3191 O.2     
  38 O38            6.4502     2.9287    -0.0505 O.3     
  39 C39           -0.2068     0.3961     1.1328 C.3     
  40 F40           -1.5079     0.5998     1.6051 F       
  41 F41            0.2900     1.5923     0.6042 F       
  42 F42           -0.2211    -0.5844     0.1350 F       
  43 H43           -0.8883    -0.0106     3.7402 H       
  44 H44            2.9951    -1.2012     5.0564 H       
  45 H45            3.7769    -2.4787     0.9746 H       
  46 H46            6.1915    -2.8301     0.6947 H       
  47 H47            4.2733     1.7079     0.2880 H       
  48 H48            8.3051    -0.5502     2.2085 H       
  49 H49            6.5738    -1.4914    -1.9510 H       
  50 H50            9.1123    -1.9785    -3.5746 H       
  51 H51            8.0972    -3.2382    -2.8323 H       
  52 H52            7.5477    -2.9528    -5.2333 H       
  53 H53            6.1702    -2.4936    -4.2037 H       
  54 H54            8.1999    -0.5681    -5.4241 H       
  55 H55            6.6766     1.1788    -4.5428 H       
  56 H56            5.6615    -0.0810    -3.8005 H       
  57 H57            7.2261     0.8933    -2.1417 H       
  58 H58            8.6036     0.4342    -3.1713 H       
  59 H59            5.2579    -1.0832    -6.0533 H       
  60 H60            6.2729     0.1765    -6.7956 H       
  61 H61            6.6353    -1.5423    -7.0829 H       
  62 H62            9.5561     1.1517     1.0332 H       
  63 H63           10.7414     0.0874     1.8273 H       
  64 H64           10.4331    -0.0702     0.0813 H       
  65 H65            9.9550    -2.6192     0.6935 H       
  66 H66           10.2631    -2.1431     2.3807 H       
  67 H67            1.2820    -0.6081     6.6735 H       
  68 H68           -0.3397    -0.1107     6.1341 H       
  69 H69            8.1395    -5.0884     2.6606 H       
  70 H70            9.4123    -4.8875     1.4327 H       
  71 H71            9.7203    -4.4114     3.1199 H       
  72 H72            0.6209    -2.3778     8.1316 H       
  73 H73           -1.0329    -1.7555     7.9109 H       
  74 H74           -1.0113    -4.1238     8.7205 H       
  75 H75           -1.7866    -3.9633     7.1255 H       
  76 H76            1.1488    -5.2892     5.4019 H       
  77 H77           -0.4967    -4.6593     5.1437 H       
  78 H78            1.1576    -2.9373     4.5456 H       
  79 H79            1.9073    -3.0719     6.1552 H       
  80 H80            7.0646     3.6496    -0.2451 H       
@<TRIPOS>BOND
   1    1    2 ar
   2    1    6 ar
   3    1   43 1
   4    2    3 ar
   5    2   27 1
   6    3    4 ar
   7    3   44 1
   8    4    5 ar
   9    5    6 ar
  10    5    7 1
  11    6   39 1
  12    7    8 1
  13    8    9 ar
  14    8   13 ar
  15    9   10 ar
  16    9   45 1
  17   10   11 ar
  18   10   46 1
  19   11   12 ar
  20   11   14 1
  21   12   13 ar
  22   12   36 1
  23   13   47 1
  24   14   15 am
  25   14   16 1
  26   15   17 2
  27   15   18 1
  28   16   25 1
  29   16   26 1
  30   16   48 1
  31   18   19 1
  32   18   23 1
  33   18   49 1
  34   19   20 1
  35   19   50 1
  36   19   51 1
  37   20   21 1
  38   20   52 1
  39   20   53 1
  40   21   22 1
  41   21   24 1
  42   21   54 1
  43   22   23 1
  44   22   55 1
  45   22   56 1
  46   23   57 1
  47   23   58 1
  48   24   59 1
  49   24   60 1
  50   24   61 1
  51   25   62 1
  52   25   63 1
  53   25   64 1
  54   26   28 1
  55   26   65 1
  56   26   66 1
  57   27   29 1
  58   27   67 1
  59   27   68 1
  60   28   30 1
  61   29   31 1
  62   29   35 1
  63   30   69 1
  64   30   70 1
  65   30   71 1
  66   31   32 1
  67   31   72 1
  68   31   73 1
  69   32   33 1
  70   32   74 1
  71   32   75 1
  72   33   34 1
  73   34   35 1
  74   34   76 1
  75   34   77 1
  76   35   78 1
  77   35   79 1
  78   36   37 2
  79   36   38 1
  80   38   80 1
  81   39   40 1
  82   39   41 1
  83   39   42 1

#	End of record

