#	Name: ASD01883082
#	Creating user name:	WinNT
#	Creation time:	15. 06. 2019 19:45

#	Modifying user name:	WinNT
#	Modification time:	15. 06. 2019 19:45

#	Program:	/corina/corina34_cracker 3.40 0067  02.08.2006

@<TRIPOS>MOLECULE
ASD01883082
  62   65    0    0    0
SMALL
NO_CHARGES


@<TRIPOS>ATOM
   1 O1            -0.5654     3.7785    -0.7149 O.3     
   2 N2             5.1855     5.6626     0.9427 N.am    
   3 C3             5.7981     4.5564     1.4037 C.2     
   4 C4             6.2516     4.5068     2.7456 C.2     
   5 C5             6.0470     5.6272     3.5685 C.2     
   6 C6             5.3997     6.7546     3.0275 C.2     
   7 C7             4.9931     6.7462     1.7372 C.2     
   8 O8             5.9624     3.5981     0.6681 O.2     
   9 C9             6.9049     3.3379     3.2528 C.1     
  10 N10            7.4232     2.4105     3.6552 N.1     
  11 C11            4.7223     5.7001    -0.4466 C.3     
  12 C12            3.3075     5.1860    -0.5185 C.ar    
  13 C13            2.2469     6.0628    -0.3838 C.ar    
  14 C14            0.9491     5.5940    -0.4494 C.ar    
  15 C15            0.7104     4.2422    -0.6505 C.ar    
  16 C16            1.7763     3.3646    -0.7853 C.ar    
  17 C17            3.0722     3.8392    -0.7247 C.ar    
  18 C18            6.5024     5.6223     4.9760 C.ar    
  19 C19            7.5060     6.4992     5.3910 C.ar    
  20 C20            7.9261     6.4895     6.7050 C.ar    
  21 C21            7.3552     5.6128     7.6106 C.ar    
  22 C22            6.3600     4.7410     7.2056 C.ar    
  23 C23            5.9264     4.7448     5.8960 C.ar    
  24 C24            7.8199     5.6070     9.0441 C.3     
  25 N25            7.0961     6.6397     9.7976 N.3     
  26 C26            7.4404     6.5883    11.2259 C.3     
  27 C27            6.7120     7.7161    11.9618 C.3     
  28 O28            5.3046     7.5927    11.7393 O.3     
  29 C29            4.9337     7.6393    10.3589 C.3     
  30 C30            5.6441     6.5107     9.6068 C.3     
  31 C31            8.9513     6.7611    11.3938 C.3     
  32 C32            5.1753     5.1598    10.1510 C.3     
  33 C33           -0.7359     2.3752    -0.9240 C.3     
  34 F34           -0.1324     1.6710     0.1234 F       
  35 F35           -2.1011     2.0722    -0.9641 F       
  36 F36           -0.1411     2.0087    -2.1361 F       
  37 H37            5.2316     7.6272     3.6412 H       
  38 H38            4.4976     7.6167     1.3333 H       
  39 H39            4.7550     6.7262    -0.8130 H       
  40 H40            5.3681     5.0738    -1.0620 H       
  41 H41            2.4332     7.1149    -0.2269 H       
  42 H42            0.1210     6.2792    -0.3438 H       
  43 H43            1.5931     2.3117    -0.9416 H       
  44 H44            3.9024     3.1564    -0.8300 H       
  45 H45            7.9528     7.1834     4.6850 H       
  46 H46            8.7025     7.1674     7.0274 H       
  47 H47            5.9185     4.0591     7.9173 H       
  48 H48            5.1493     4.0641     5.5812 H       
  49 H49            7.6233     4.6301     9.4859 H       
  50 H50            8.8895     5.8136     9.0802 H       
  51 H51            7.1351     5.6272    11.6396 H       
  52 H52            6.9191     7.6471    13.0297 H       
  53 H53            7.0570     8.6789    11.5849 H       
  54 H54            3.8547     7.5147    10.2675 H       
  55 H55            5.2271     8.5999     9.9354 H       
  56 H56            5.4093     6.5771     8.5444 H       
  57 H57            9.2550     7.7233    10.9816 H       
  58 H58            9.2059     6.7229    12.4530 H       
  59 H59            9.4694     5.9601    10.8665 H       
  60 H60            5.3540     5.1192    11.2255 H       
  61 H61            4.1099     5.0391     9.9551 H       
  62 H62            5.7280     4.3588     9.6602 H       
@<TRIPOS>BOND
   1    1   33 1
   2    1   15 1
   3    2    3 am
   4    2   11 1
   5    2    7 1
   6    3    4 1
   7    3    8 2
   8    4    5 2
   9    4    9 1
  10    5    6 1
  11    5   18 1
  12    6    7 2
  13    6   37 1
  14    7   38 1
  15    9   10 3
  16   11   12 1
  17   11   39 1
  18   11   40 1
  19   12   13 ar
  20   12   17 ar
  21   13   14 ar
  22   13   41 1
  23   14   15 ar
  24   14   42 1
  25   15   16 ar
  26   16   17 ar
  27   16   43 1
  28   17   44 1
  29   18   19 ar
  30   18   23 ar
  31   19   20 ar
  32   19   45 1
  33   20   21 ar
  34   20   46 1
  35   21   22 ar
  36   21   24 1
  37   22   23 ar
  38   22   47 1
  39   23   48 1
  40   24   25 1
  41   24   49 1
  42   24   50 1
  43   25   26 1
  44   25   30 1
  45   26   27 1
  46   26   31 1
  47   26   51 1
  48   27   28 1
  49   27   52 1
  50   27   53 1
  51   28   29 1
  52   29   30 1
  53   29   54 1
  54   29   55 1
  55   30   32 1
  56   30   56 1
  57   31   57 1
  58   31   58 1
  59   31   59 1
  60   32   60 1
  61   32   61 1
  62   32   62 1
  63   33   34 1
  64   33   35 1
  65   33   36 1

#	End of record

