#	Name: ASD09740085
#	Creating user name:	WinNT
#	Creation time:	15. 06. 2019 21:22

#	Modifying user name:	WinNT
#	Modification time:	15. 06. 2019 21:22

#	Program:	/corina/corina34_cracker 3.40 0067  02.08.2006

@<TRIPOS>MOLECULE
ASD09740085
  32   35    0    0    0
SMALL
NO_CHARGES


@<TRIPOS>ATOM
   1 O1            -0.0144     1.2085     0.0087 O.3     
   2 N2             0.0021    -0.0041     0.0020 N.2     
   3 C3             1.2412     1.6826    -0.0008 C.2     
   4 N4             2.0455     0.6360    -0.0141 N.2     
   5 C5             1.2345    -0.4421    -0.0121 C.2     
   6 C6             1.6622    -1.8643    -0.0234 C.ar    
   7 C7             1.6458     3.1040     0.0026 C.ar    
   8 C8             0.7211    -2.8965    -0.0200 C.ar    
   9 C9             3.0166    -2.2059    -0.0436 C.ar    
  10 C10            3.3707    -3.5401    -0.0540 C.ar    
  11 N11            2.4504    -4.4848    -0.0456 N.ar    
  12 C12            1.1617    -4.2047    -0.0313 C.ar    
  13 C13            3.0112     3.4409    -0.0091 C.ar    
  14 C14            3.4078     4.7389    -0.0059 C.ar    
  15 C15            2.4485     5.7680     0.0089 C.ar    
  16 C16            1.0687     5.4412     0.0203 C.ar    
  17 C17            0.6776     4.0938     0.0115 C.ar    
  18 C18            0.1151     6.4750     0.0355 C.ar    
  19 C19            0.5277     7.7718     0.0390 C.ar    
  20 C20            1.8838     8.0927     0.0273 C.ar    
  21 C21            2.8348     7.1187     0.0130 C.ar    
  22 H22           -0.3358    -2.6744    -0.0083 H       
  23 H23            3.7755    -1.4375    -0.0513 H       
  24 H24            4.4153    -3.8141    -0.0696 H       
  25 H25            0.4415    -5.0096    -0.0248 H       
  26 H26            3.7537     2.6567    -0.0204 H       
  27 H27            4.4601     4.9819    -0.0143 H       
  28 H28           -0.3699     3.8309     0.0197 H       
  29 H29           -0.9392     6.2408     0.0440 H       
  30 H30           -0.2065     8.5638     0.0507 H       
  31 H31            2.1849     9.1299     0.0297 H       
  32 H32            3.8819     7.3832     0.0044 H       
@<TRIPOS>BOND
   1    1    2 1
   2    1    3 1
   3    2    5 2
   4    3    4 2
   5    3    7 1
   6    4    5 1
   7    5    6 1
   8    6    8 ar
   9    6    9 ar
  10    7   13 ar
  11    7   17 ar
  12    8   12 ar
  13    8   22 1
  14    9   10 ar
  15    9   23 1
  16   10   11 ar
  17   10   24 1
  18   11   12 ar
  19   12   25 1
  20   13   14 ar
  21   13   26 1
  22   14   15 ar
  23   14   27 1
  24   15   16 ar
  25   15   21 ar
  26   16   17 ar
  27   16   18 ar
  28   17   28 1
  29   18   19 ar
  30   18   29 1
  31   19   20 ar
  32   19   30 1
  33   20   21 ar
  34   20   31 1
  35   21   32 1

#	End of record

