#	Name: ASD01882302
#	Creating user name:	WinNT
#	Creation time:	15. 06. 2019 19:44

#	Modifying user name:	WinNT
#	Modification time:	15. 06. 2019 19:44

#	Program:	/corina/corina34_cracker 3.40 0067  02.08.2006

@<TRIPOS>MOLECULE
ASD01882302
  31   33    0    0    0
SMALL
NO_CHARGES


@<TRIPOS>ATOM
   1 C1             0.0021    -0.0041     0.0020 C.1     
   2 C2            -0.0173     1.4278     0.0099 C.ar    
   3 C3             1.1834     2.1459     0.0023 C.ar    
   4 C4             1.1590     3.5244     0.0094 C.ar    
   5 C5            -0.0552     4.1994     0.0242 C.ar    
   6 C6            -1.2499     3.4894     0.0318 C.ar    
   7 C7            -1.2357     2.1122     0.0194 C.ar    
   8 N8             0.0175    -1.1399    -0.0042 N.1     
   9 O9            -0.0747     5.5568     0.0316 O.3     
  10 C10           -1.3571     6.1871     0.0468 C.3     
  11 C11           -1.4370     8.9947    -1.8323 C.2     
  12 N12           -1.2484     9.6031    -2.9955 N.2     
  13 C13           -2.1767    10.4110    -3.5184 C.2     
  14 C14           -3.3916    10.6269    -2.8201 C.2     
  15 C15           -3.5719    10.0023    -1.6375 C.2     
  16 N16           -2.5899     9.1869    -1.1488 N.pl3   
  17 O17           -0.5904     8.1547    -1.1976 O.3     
  18 C18           -2.5482     8.4056     0.0990 C.3     
  19 C19           -1.1784     7.7066     0.0533 C.3     
  20 O20           -1.9790    10.9602    -4.5914 O.2     
  21 Cl21           2.7008     1.3030    -0.0156 Cl      
  22 H22            2.0850     4.0802     0.0039 H       
  23 H23           -2.1912     4.0186     0.0436 H       
  24 H24           -2.1650     1.5619     0.0211 H       
  25 H25           -1.9179     5.8910    -0.8397 H       
  26 H26           -1.9016     5.8814     0.9401 H       
  27 H27           -4.1542    11.2759    -3.2247 H       
  28 H28           -4.4860    10.1462    -1.0807 H       
  29 H29           -2.6147     9.0643     0.9649 H       
  30 H30           -3.3510     7.6685     0.1156 H       
  31 H31           -0.5601     8.0134     0.8968 H       
@<TRIPOS>BOND
   1    1    2 1
   2    1    8 3
   3    2    3 ar
   4    2    7 ar
   5    3    4 ar
   6    3   21 1
   7    4    5 ar
   8    4   22 1
   9    5    6 ar
  10    5    9 1
  11    6    7 ar
  12    6   23 1
  13    7   24 1
  14    9   10 1
  15   10   19 1
  16   10   25 1
  17   10   26 1
  18   11   12 2
  19   11   16 1
  20   11   17 1
  21   12   13 1
  22   13   14 1
  23   13   20 2
  24   14   15 2
  25   14   27 1
  26   15   16 1
  27   15   28 1
  28   16   18 1
  29   17   19 1
  30   18   19 1
  31   18   29 1
  32   18   30 1
  33   19   31 1

#	End of record

