#	Name: ASD03091171
#	Creating user name:	WinNT
#	Creation time:	15. 06. 2019 20:30

#	Modifying user name:	WinNT
#	Modification time:	15. 06. 2019 20:30

#	Program:	/corina/corina34_cracker 3.40 0067  02.08.2006

@<TRIPOS>MOLECULE
ASD03091171
  67   71    0    0    0
SMALL
NO_CHARGES


@<TRIPOS>ATOM
   1 C1            -0.0248     1.4641     0.0348 C.2     
   2 C2             0.0089    -0.0424     0.0136 C.3     
   3 O3             1.0117     2.0939     0.0367 O.2     
   4 N4            -1.2068     2.1116     0.0460 N.am    
   5 C5            -1.2395     3.5761     0.0666 C.3     
   6 C6            -2.5591     4.0652    -0.5338 C.3     
   7 C7            -1.1226     4.0686     1.5105 C.3     
   8 N8             3.3359    -1.0138     1.2340 N.2     
   9 C9             2.0927    -0.6131     1.1736 C.2     
  10 N10            1.4007    -0.4995    -0.0019 N.am    
  11 C11            1.9945    -0.8075    -1.1785 C.2     
  12 C12            3.3927    -1.2610    -1.1346 C.ar    
  13 C13            4.0906    -1.6006    -2.2912 C.ar    
  14 C14            5.4062    -2.0212    -2.1914 C.ar    
  15 C15            6.0283    -2.1047    -0.9456 C.ar    
  16 C16            5.3569    -1.7756     0.1966 C.ar    
  17 C17            4.0277    -1.3473     0.1255 C.ar    
  18 C18            1.4026    -0.2656     2.4337 C.ar    
  19 C19            0.1940    -0.8809     2.7638 C.ar    
  20 C20            0.1094     0.3860     4.7942 C.ar    
  21 C21            1.9596     0.6753     3.3015 C.ar    
  22 C22           -0.4450    -0.5519     3.9414 C.ar    
  23 C23            1.3103     0.9952     4.4759 C.ar    
  24 C24           -0.5947     0.7412     6.0784 C.3     
  25 O25            1.3938    -0.7130    -2.2331 O.2     
  26 N26            7.1132    -2.0640    -6.1177 N.3     
  27 C27            5.9302    -2.8664    -5.7712 C.3     
  28 C28            5.2492    -2.3111    -4.5300 C.3     
  29 N29            6.1149    -2.3647    -3.3459 N.3     
  30 C30            7.2875    -1.4964    -3.5219 C.3     
  31 C31            8.4633    -2.2957    -4.0634 C.3     
  32 C32            8.3179    -2.6636    -5.5262 C.3     
  33 C33            7.0151    -0.6407    -5.8753 C.3     
  34 C34            6.9056    -0.3150    -4.3947 C.3     
  35 H35           -0.4908    -0.4295     0.9017 H       
  36 H36           -0.5026    -0.4047    -0.8781 H       
  37 H37           -2.0358     1.6080     0.0405 H       
  38 H38           -0.4071     3.9664    -0.5189 H       
  39 H39           -3.3915     3.6749     0.0517 H       
  40 H40           -2.5834     5.1548    -0.5185 H       
  41 H41           -2.6423     3.7144    -1.5624 H       
  42 H42           -1.9551     3.6783     2.0960 H       
  43 H43           -0.1826     3.7202     1.9383 H       
  44 H44           -1.1470     5.1582     1.5258 H       
  45 H45            3.6103    -1.5369    -3.2564 H       
  46 H46            7.0549    -2.4344    -0.8838 H       
  47 H47            5.8519    -1.8456     1.1539 H       
  48 H48           -0.2402    -1.6127     2.0987 H       
  49 H49            2.8968     1.1515     3.0542 H       
  50 H50           -1.3801    -1.0273     4.1980 H       
  51 H51            1.7375     1.7268     5.1457 H       
  52 H52           -0.2520     0.0810     6.8752 H       
  53 H53           -0.3708     1.7749     6.3416 H       
  54 H54           -1.6704     0.6244     5.9472 H       
  55 H55            5.2277    -2.8488    -6.6044 H       
  56 H56            6.2368    -3.8953    -5.5826 H       
  57 H57            4.9683    -1.2744    -4.7154 H       
  58 H58            4.3465    -2.8898    -4.3338 H       
  59 H59            7.5665    -1.1044    -2.5438 H       
  60 H60            9.3725    -1.7073    -3.9397 H       
  61 H61            8.5612    -3.2117    -3.4807 H       
  62 H62            8.2565    -3.7481    -5.6160 H       
  63 H63            9.1944    -2.3118    -6.0704 H       
  64 H64            7.9007    -0.1512    -6.2804 H       
  65 H65            6.1342    -0.2546    -6.3882 H       
  66 H66            5.8788    -0.0261    -4.1705 H       
  67 H67            7.5653     0.5221    -4.1664 H       
@<TRIPOS>BOND
   1    1    2 1
   2    1    3 2
   3    1    4 am
   4    2   10 1
   5    2   35 1
   6    2   36 1
   7    4    5 1
   8    4   37 1
   9    5    6 1
  10    5    7 1
  11    5   38 1
  12    6   39 1
  13    6   40 1
  14    6   41 1
  15    7   42 1
  16    7   43 1
  17    7   44 1
  18    8    9 2
  19    8   17 1
  20    9   10 1
  21    9   18 1
  22   10   11 am
  23   11   12 1
  24   11   25 2
  25   12   13 ar
  26   12   17 ar
  27   13   14 ar
  28   13   45 1
  29   14   15 ar
  30   14   29 1
  31   15   16 ar
  32   15   46 1
  33   16   17 ar
  34   16   47 1
  35   18   19 ar
  36   18   21 ar
  37   19   22 ar
  38   19   48 1
  39   20   22 ar
  40   20   23 ar
  41   20   24 1
  42   21   23 ar
  43   21   49 1
  44   22   50 1
  45   23   51 1
  46   24   52 1
  47   24   53 1
  48   24   54 1
  49   26   27 1
  50   26   32 1
  51   26   33 1
  52   27   28 1
  53   27   55 1
  54   27   56 1
  55   28   29 1
  56   28   57 1
  57   28   58 1
  58   29   30 1
  59   30   31 1
  60   30   34 1
  61   30   59 1
  62   31   32 1
  63   31   60 1
  64   31   61 1
  65   32   62 1
  66   32   63 1
  67   33   34 1
  68   33   64 1
  69   33   65 1
  70   34   66 1
  71   34   67 1

#	End of record

