#	Name: ASD01948167
#	Creating user name:	WinNT
#	Creation time:	15. 06. 2019 20:13

#	Modifying user name:	WinNT
#	Modification time:	15. 06. 2019 20:13

#	Program:	/corina/corina34_cracker 3.40 0067  02.08.2006

@<TRIPOS>MOLECULE
ASD01948167
  35   37    0    0    0
SMALL
NO_CHARGES


@<TRIPOS>ATOM
   1 C1             1.8292     1.4174    -1.0337 C.ar    
   2 C2             1.6298     0.0442    -1.1338 C.ar    
   3 C3             1.8364    -0.5972    -2.3473 C.ar    
   4 C4             2.2393     0.1288    -3.4517 C.ar    
   5 C5             2.4370     1.4938    -3.3502 C.ar    
   6 C6             2.2268     2.1387    -2.1441 C.ar    
   7 N7             1.2223    -0.6887    -0.0137 N.pl3   
   8 C8             3.6724    -2.3074    -0.4307 C.2     
   9 C9             2.3385    -2.8901    -0.2900 C.2     
  10 C10            1.1518    -2.0664    -0.0782 C.2     
  11 N11            4.7103    -3.1429    -0.6595 N.2     
  12 F12            1.6294     2.0459     0.1454 F       
  13 C13            2.2118    -4.2916    -0.3092 C.2     
  14 N14            0.9687    -4.8192    -0.3907 N.am    
  15 C15           -0.1268    -4.0939    -0.0783 C.2     
  16 C16           -0.0702    -2.7083     0.0610 C.2     
  17 C17            4.5509    -4.4287    -0.5506 C.2     
  18 N18            3.3730    -4.9921    -0.1961 N.pl3   
  19 O19            3.8672    -1.1059    -0.3508 O.2     
  20 C20            0.7148    -6.1630    -0.9221 C.3     
  21 O21           -1.1880    -4.6727     0.0835 O.2     
  22 I22            3.0485     2.5889    -5.0282 I       
  23 C23            3.4439    -6.3283     0.4035 C.3     
  24 H24            1.6828    -1.6632    -2.4280 H       
  25 H25            2.4004    -0.3705    -4.3957 H       
  26 H26            2.3817     3.2048    -2.0680 H       
  27 H27            0.9892    -0.2291     0.8081 H       
  28 H28           -0.9622    -2.1396     0.2749 H       
  29 H29            5.3881    -5.0784    -0.7494 H       
  30 H30            0.7569    -6.8888    -0.1100 H       
  31 H31           -0.2724    -6.1907    -1.3834 H       
  32 H32            1.4713    -6.4077    -1.6677 H       
  33 H33            4.4849    -6.6464     0.4601 H       
  34 H34            3.0177    -6.2996     1.4064 H       
  35 H35            2.8817    -7.0322    -0.2101 H       
@<TRIPOS>BOND
   1    1    2 ar
   2    1   12 1
   3    1    6 ar
   4    2    3 ar
   5    2    7 1
   6    3    4 ar
   7    3   24 1
   8    4    5 ar
   9    4   25 1
  10    5    6 ar
  11    5   22 1
  12    6   26 1
  13    7   10 1
  14    7   27 1
  15    8    9 1
  16    8   19 2
  17    8   11 1
  18    9   10 1
  19    9   13 2
  20   10   16 2
  21   11   17 2
  22   13   14 1
  23   13   18 1
  24   14   15 am
  25   14   20 1
  26   15   16 1
  27   15   21 2
  28   16   28 1
  29   17   18 1
  30   17   29 1
  31   18   23 1
  32   20   30 1
  33   20   31 1
  34   20   32 1
  35   23   33 1
  36   23   34 1
  37   23   35 1

#	End of record

