#	Name: ASD05730163
#	Creating user name:	WinNT
#	Creation time:	15. 06. 2019 21:02

#	Modifying user name:	WinNT
#	Modification time:	15. 06. 2019 21:02

#	Program:	/corina/corina34_cracker 3.40 0067  02.08.2006

@<TRIPOS>MOLECULE
ASD05730163
  61   64    0    0    0
SMALL
NO_CHARGES


@<TRIPOS>ATOM
   1 C1            -0.0167     1.3808     0.0096 C.ar    
   2 C2             0.0021    -0.0041     0.0020 C.ar    
   3 C3             1.2094    -0.6807    -0.0123 C.ar    
   4 C4             2.4008     0.0203    -0.0352 C.ar    
   5 C5             2.3946     1.4181    -0.0445 C.ar    
   6 C6             1.1692     2.0933     0.0021 C.ar    
   7 N7             1.1338     3.4962     0.0877 N.pl3   
   8 N8             3.5777     2.0831    -0.1450 N.2     
   9 C9             3.9373     3.1610     0.4566 C.2     
  10 C10            3.1208     3.9389     1.4015 C.ar    
  11 C11            1.0045     4.8981     2.0431 C.ar    
  12 C12            1.7518     4.1151     1.1762 C.ar    
  13 C13            3.7128     4.5146     2.5269 C.ar    
  14 C14            2.9524     5.2777     3.3914 C.ar    
  15 C15            1.6043     5.4772     3.1453 C.ar    
  16 C16            0.4631     4.2919    -0.9434 C.3     
  17 C17           -1.0042     4.4923    -0.5590 C.3     
  18 N18            5.2038     3.6306     0.1924 N.pl3   
  19 C19            6.0739     2.9073    -0.7382 C.3     
  20 C20            7.1287     3.8566    -1.3653 C.3     
  21 C21            8.2907     2.9019    -1.7112 C.3     
  22 N22            8.1482     1.7135    -0.8574 N.am    
  23 C23            6.9740     1.8963     0.0151 C.3     
  24 C24            8.9566     0.6351    -0.8708 C.2     
  25 O25            8.7424    -0.2946    -0.1171 O.2     
  26 N26           10.0023     0.5874    -1.7196 N.am    
  27 C27           10.8810    -0.5848    -1.7342 C.3     
  28 C28           10.0640    -1.8303    -2.0837 C.3     
  29 C29           11.9798    -0.3856    -2.7800 C.3     
  30 C30           11.5168    -0.7627    -0.3540 C.3     
  31 Cl31           3.6897     5.9893     4.7927 Cl      
  32 F32            1.2236    -2.0316    -0.0035 F       
  33 H33           -0.9602     1.9063     0.0170 H       
  34 H34           -0.9260    -0.5564     0.0076 H       
  35 H35            3.3394    -0.5138    -0.0456 H       
  36 H36           -0.0474     5.0563     1.8568 H       
  37 H37            4.7642     4.3632     2.7217 H       
  38 H38            1.0191     6.0874     3.8173 H       
  39 H39            0.9521     5.2622    -1.0290 H       
  40 H40            0.5203     3.7706    -1.8990 H       
  41 H41           -1.0615     5.0135     0.3966 H       
  42 H42           -1.5032     5.0843    -1.3262 H       
  43 H43           -1.4932     3.5220    -0.4735 H       
  44 H44            5.5203     4.4404     0.6224 H       
  45 H45            5.4879     2.4094    -1.5108 H       
  46 H46            6.7360     4.3283    -2.2660 H       
  47 H47            7.4488     4.6080    -0.6434 H       
  48 H48            8.2335     2.6132    -2.7608 H       
  49 H49            9.2442     3.3904    -1.5105 H       
  50 H50            7.2777     2.3039     0.9794 H       
  51 H51            6.4508     0.9498     0.1502 H       
  52 H52           10.1732     1.3291    -2.3209 H       
  53 H53            9.6110    -1.7035    -3.0670 H       
  54 H54           10.7178    -2.7024    -2.0945 H       
  55 H55            9.2812    -1.9722    -1.3386 H       
  56 H56           12.5619     0.5017    -2.5310 H       
  57 H57           12.6336    -1.2577    -2.7908 H       
  58 H58           11.5268    -0.2588    -3.7633 H       
  59 H59           10.7340    -0.9047     0.3911 H       
  60 H60           12.1706    -1.6349    -0.3648 H       
  61 H61           12.0989     0.1246    -0.1049 H       
@<TRIPOS>BOND
   1    1    2 ar
   2    1    6 ar
   3    1   33 1
   4    2    3 ar
   5    2   34 1
   6    3    4 ar
   7    3   32 1
   8    4    5 ar
   9    4   35 1
  10    5    6 ar
  11    5    8 1
  12    6    7 1
  13    7   12 1
  14    7   16 1
  15    8    9 2
  16    9   18 1
  17    9   10 1
  18   10   13 ar
  19   10   12 ar
  20   11   12 ar
  21   11   15 ar
  22   11   36 1
  23   13   14 ar
  24   13   37 1
  25   14   15 ar
  26   14   31 1
  27   15   38 1
  28   16   17 1
  29   16   39 1
  30   16   40 1
  31   17   41 1
  32   17   42 1
  33   17   43 1
  34   18   19 1
  35   18   44 1
  36   19   20 1
  37   19   23 1
  38   19   45 1
  39   20   21 1
  40   20   46 1
  41   20   47 1
  42   21   22 1
  43   21   48 1
  44   21   49 1
  45   22   23 1
  46   22   24 am
  47   23   50 1
  48   23   51 1
  49   24   25 2
  50   24   26 am
  51   26   27 1
  52   26   52 1
  53   27   28 1
  54   27   29 1
  55   27   30 1
  56   28   53 1
  57   28   54 1
  58   28   55 1
  59   29   56 1
  60   29   57 1
  61   29   58 1
  62   30   59 1
  63   30   60 1
  64   30   61 1

#	End of record

