#	Name: ASD02560382
#	Creating user name:	WinNT
#	Creation time:	15. 06. 2019 20:25

#	Modifying user name:	WinNT
#	Modification time:	15. 06. 2019 20:25

#	Program:	/corina/corina34_cracker 3.40 0067  02.08.2006

@<TRIPOS>MOLECULE
ASD02560382
  39   42    0    0    0
SMALL
NO_CHARGES


@<TRIPOS>ATOM
   1 C1             0.0999     1.3941     0.9617 C.2     
   2 C2             0.0811     0.0043     0.7413 C.2     
   3 C3             1.2269    -0.6611     0.4900 C.2     
   4 N4             2.4238     0.0040     0.4454 N.pl3   
   5 C5             2.4725     1.3629     0.6567 C.2     
   6 C6             1.2788     2.0687     0.9205 C.2     
   7 C7             3.7032    -0.4188     0.2161 C.2     
   8 C8             4.5119     0.6968     0.2922 C.2     
   9 N9             3.7304     1.7597     0.5611 N.2     
  10 C10            5.9810     0.7207     0.1107 C.2     
  11 N11            4.1122    -1.7248    -0.0439 N.3     
  12 C12            2.9889    -2.6632     0.0822 C.3     
  13 C13            6.7749     1.8284    -0.3033 C.2     
  14 C14            3.4963    -4.0755    -0.0556 C.ar    
  15 C15            3.9053    -4.7753     1.0641 C.ar    
  16 Cl16          -1.4247    -0.8581     0.7938 Cl      
  17 C17            8.0352     1.3407    -0.3115 C.2     
  18 O18            7.9552     0.0572     0.0689 O.3     
  19 N19            6.8160    -0.2727     0.3042 N.2     
  20 C20            9.2883     2.0936    -0.6773 C.3     
  21 C21            4.3708    -6.0708     0.9377 C.ar    
  22 C22            4.4269    -6.6666    -0.3084 C.ar    
  23 C23            4.0170    -5.9671    -1.4280 C.ar    
  24 C24            3.5475    -4.6731    -1.3011 C.ar    
  25 H25           -0.8205     1.9237     1.1586 H       
  26 H26            1.2008    -1.7278     0.3227 H       
  27 H27            1.3022     3.1354     1.0879 H       
  28 H28            4.5415    -1.7949    -0.9543 H       
  29 H29            2.5198    -2.5393     1.0582 H       
  30 H30            2.2577    -2.4618    -0.7007 H       
  31 H31            6.4460     2.8263    -0.5531 H       
  32 H32            3.8615    -4.3099     2.0377 H       
  33 H33            9.7065     2.5586     0.2154 H       
  34 H34           10.0165     1.4026    -1.1021 H       
  35 H35            9.0484     2.8642    -1.4100 H       
  36 H36            4.6910    -6.6173     1.8125 H       
  37 H37            4.7912    -7.6785    -0.4072 H       
  38 H38            4.0612    -6.4324    -2.4016 H       
  39 H39            3.2273    -4.1266    -2.1758 H       
@<TRIPOS>BOND
   1    1    2 1
   2    1    6 2
   3    1   25 1
   4    2    3 2
   5    2   16 1
   6    3    4 1
   7    3   26 1
   8    4    5 1
   9    4    7 1
  10    5    6 1
  11    5    9 2
  12    6   27 1
  13    7    8 2
  14    7   11 1
  15    8    9 1
  16    8   10 1
  17   10   13 1
  18   10   19 2
  19   11   12 1
  20   11   28 1
  21   12   14 1
  22   12   29 1
  23   12   30 1
  24   13   17 2
  25   13   31 1
  26   14   15 ar
  27   14   24 ar
  28   15   21 ar
  29   15   32 1
  30   17   18 1
  31   17   20 1
  32   18   19 1
  33   20   33 1
  34   20   34 1
  35   20   35 1
  36   21   22 ar
  37   21   36 1
  38   22   23 ar
  39   22   37 1
  40   23   24 ar
  41   23   38 1
  42   24   39 1

#	End of record

