#	Name: ASD01918441
#	Creating user name:	WinNT
#	Creation time:	15. 06. 2019 20:11

#	Modifying user name:	WinNT
#	Modification time:	15. 06. 2019 20:11

#	Program:	/corina/corina34_cracker 3.40 0067  02.08.2006

@<TRIPOS>MOLECULE
ASD01918441
  55   59    0    0    0
SMALL
NO_CHARGES


@<TRIPOS>ATOM
   1 C1             0.0799     1.5914    -0.1613 C.3     
   2 C2             0.1363     0.0877    -0.0800 C.2     
   3 N3             0.0444    -0.7317    -1.0919 N.2     
   4 C4             0.1366    -1.9850    -0.6334 C.2     
   5 C5             0.0774    -3.2738    -1.4174 C.3     
   6 N6             0.4889    -4.3588    -0.5084 N.am    
   7 C7            -0.0552    -4.3691     0.8578 C.3     
   8 C8             0.4402    -3.1240     1.6046 C.3     
   9 C9             0.2926    -1.9257     0.7031 C.2     
  10 O10            0.2950    -0.6283     1.0441 O.3     
  11 C11            1.3422    -5.3178    -0.9192 C.2     
  12 O12            1.6708    -6.2035    -0.1587 O.2     
  13 C13            1.8881    -5.2894    -2.3236 C.3     
  14 N14            2.7859    -6.4300    -2.5217 N.pl3   
  15 C15            4.1387    -6.4405    -2.3263 C.2     
  16 C16            4.5719    -7.6948    -2.6254 C.2     
  17 N17            3.5055    -8.4276    -2.9937 N.2     
  18 C18            2.4266    -7.6817    -2.9300 C.2     
  19 C19            1.0519    -8.1232    -3.2513 C.ar    
  20 C20           -0.0441    -7.3902    -2.7948 C.ar    
  21 C21           -1.3238    -7.8074    -3.0978 C.ar    
  22 C22           -1.5215    -8.9498    -3.8526 C.ar    
  23 C23           -0.4391    -9.6813    -4.3079 C.ar    
  24 C24            0.8458    -9.2713    -4.0170 C.ar    
  25 C25            5.9755    -8.1715    -2.5574 C.ar    
  26 C26            6.9887    -7.3051    -2.1522 C.ar    
  27 C27            8.2927    -7.7527    -2.0904 C.ar    
  28 C28            8.5950    -9.0610    -2.4305 C.ar    
  29 F29            9.8729    -9.4950    -2.3686 F       
  30 C30            7.5904    -9.9261    -2.8335 C.ar    
  31 C31            7.9253   -11.3486    -3.2013 C.3     
  32 C32            6.2833    -9.4886    -2.8931 C.ar    
  33 H33            1.0859     1.9855    -0.3048 H       
  34 H34           -0.5492     1.8865    -1.0011 H       
  35 H35           -0.3380     1.9898     0.7632 H       
  36 H36           -0.9400    -3.4488    -1.7671 H       
  37 H37            0.7589    -3.2229    -2.2666 H       
  38 H38           -1.1444    -4.3599     0.8164 H       
  39 H39            0.2834    -5.2649     1.3782 H       
  40 H40           -0.1546    -2.9782     2.5063 H       
  41 H41            1.4888    -3.2522     1.8731 H       
  42 H42            1.0642    -5.3476    -3.0349 H       
  43 H43            2.4388    -4.3619    -2.4807 H       
  44 H44            4.7474    -5.6113    -1.9973 H       
  45 H45            0.1090    -6.4984    -2.2051 H       
  46 H46           -2.1730    -7.2411    -2.7448 H       
  47 H47           -2.5253    -9.2723    -4.0872 H       
  48 H48           -0.6001   -10.5725    -4.8964 H       
  49 H49            1.6901    -9.8403    -4.3773 H       
  50 H50            6.7540    -6.2848    -1.8873 H       
  51 H51            9.0788    -7.0817    -1.7768 H       
  52 H52            7.8611   -11.9781    -2.3137 H       
  53 H53            7.2199   -11.7056    -3.9517 H       
  54 H54            8.9371   -11.3912    -3.6044 H       
  55 H55            5.5003   -10.1649    -3.2031 H       
@<TRIPOS>BOND
   1    1    2 1
   2    1   33 1
   3    1   34 1
   4    1   35 1
   5    2   10 1
   6    2    3 2
   7    3    4 1
   8    4    9 2
   9    4    5 1
  10    5    6 1
  11    5   36 1
  12    5   37 1
  13    6    7 1
  14    6   11 am
  15    7    8 1
  16    7   38 1
  17    7   39 1
  18    8    9 1
  19    8   40 1
  20    8   41 1
  21    9   10 1
  22   11   12 2
  23   11   13 1
  24   13   14 1
  25   13   42 1
  26   13   43 1
  27   14   18 1
  28   14   15 1
  29   15   16 2
  30   15   44 1
  31   16   17 1
  32   16   25 1
  33   17   18 2
  34   18   19 1
  35   19   24 ar
  36   19   20 ar
  37   20   21 ar
  38   20   45 1
  39   21   22 ar
  40   21   46 1
  41   22   23 ar
  42   22   47 1
  43   23   24 ar
  44   23   48 1
  45   24   49 1
  46   25   32 ar
  47   25   26 ar
  48   26   27 ar
  49   26   50 1
  50   27   28 ar
  51   27   51 1
  52   28   29 1
  53   28   30 ar
  54   30   31 1
  55   30   32 ar
  56   31   52 1
  57   31   53 1
  58   31   54 1
  59   32   55 1

#	End of record

