#	Name: ASD01948017
#	Creating user name:	WinNT
#	Creation time:	15. 06. 2019 20:13

#	Modifying user name:	WinNT
#	Modification time:	15. 06. 2019 20:13

#	Program:	/corina/corina34_cracker 3.40 0067  02.08.2006

@<TRIPOS>MOLECULE
ASD01948017
  43   45    0    0    0
SMALL
NO_CHARGES


@<TRIPOS>ATOM
   1 C1            -0.5368     0.5237     0.3861 C.3     
   2 S2            -0.7832    -1.2635     0.1969 S.o2    
   3 O3            -2.1660    -1.5852     0.2570 O.2     
   4 O4             0.0433    -1.7738    -0.8402 O.2     
   5 O5            -0.2025    -1.8637     1.4693 O.3     
   6 F6             0.3243     0.9843    -0.6157 F       
   7 F7            -1.7686     1.1782     0.2795 F       
   8 F8             0.0242     0.7869     1.6404 F       
   9 C9             0.1147    -0.5324     4.8435 C.2     
  10 C10            0.3634    -1.2761     3.7148 C.2     
  11 C11           -0.4449    -1.1326     2.5841 C.2     
  12 C12           -1.4989    -0.2308     2.6182 C.2     
  13 C13           -1.7205     0.5057     3.7797 C.2     
  14 N14           -0.9237     0.3469     4.8578 N.am    
  15 N15            0.8002    -0.5496     6.0396 N.pl3   
  16 C16            0.1857     0.4074     6.9653 C.3     
  17 C17           -0.9806     1.0148     6.1691 C.3     
  18 O18           -2.6450     1.3032     3.8231 O.2     
  19 N19            1.4928    -2.2330     3.6968 N.pl3   
  20 O20            1.3032    -3.4042     3.9721 O.2     
  21 O21            2.6117    -1.8491     3.4065 O.2     
  22 C22           -2.3902    -0.0504     1.4165 C.3     
  23 C23            1.9602    -1.3926     6.3391 C.3     
  24 C24            1.5513    -2.4924     7.2848 C.ar    
  25 C25            1.1833    -3.7291     6.7889 C.ar    
  26 C26            0.8081    -4.7379     7.6563 C.ar    
  27 C27            0.8013    -4.5101     9.0198 C.ar    
  28 C28            1.1701    -3.2736     9.5158 C.ar    
  29 C29            1.5495    -2.2662     8.6485 C.ar    
  30 H30           -0.1879    -0.1060     7.8513 H       
  31 H31            0.9019     1.1799     7.2454 H       
  32 H32           -0.8450     2.0902     6.0541 H       
  33 H33           -1.9282     0.8012     6.6636 H       
  34 H34           -3.1788    -0.8026     1.4329 H       
  35 H35           -2.8360     0.9440     1.4408 H       
  36 H36           -1.8005    -0.1620     0.5067 H       
  37 H37            2.3397    -1.8300     5.4156 H       
  38 H38            2.7398    -0.7871     6.8015 H       
  39 H39            1.1886    -3.9071     5.7237 H       
  40 H40            0.5199    -5.7039     7.2688 H       
  41 H41            0.5075    -5.2980     9.6974 H       
  42 H42            1.1645    -3.0955    10.5810 H       
  43 H43            1.8412    -1.3013     9.0362 H       
@<TRIPOS>BOND
   1    1    2 1
   2    1    6 1
   3    1    7 1
   4    1    8 1
   5    2    3 2
   6    2    4 2
   7    2    5 1
   8    5   11 1
   9    9   10 2
  10    9   14 1
  11    9   15 1
  12   10   11 1
  13   10   19 1
  14   11   12 2
  15   12   13 1
  16   12   22 1
  17   13   14 am
  18   13   18 2
  19   14   17 1
  20   15   16 1
  21   15   23 1
  22   16   17 1
  23   16   30 1
  24   16   31 1
  25   17   32 1
  26   17   33 1
  27   19   20 2
  28   19   21 2
  29   22   34 1
  30   22   35 1
  31   22   36 1
  32   23   24 1
  33   23   37 1
  34   23   38 1
  35   24   25 ar
  36   24   29 ar
  37   25   26 ar
  38   25   39 1
  39   26   27 ar
  40   26   40 1
  41   27   28 ar
  42   27   41 1
  43   28   29 ar
  44   28   42 1
  45   29   43 1

#	End of record

