#	Name: ASD01900113
#	Creating user name:	WinNT
#	Creation time:	15. 06. 2019 19:51

#	Modifying user name:	WinNT
#	Modification time:	15. 06. 2019 19:51

#	Program:	/corina/corina34_cracker 3.40 0067  02.08.2006

@<TRIPOS>MOLECULE
ASD01900113
  38   40    0    0    0
SMALL
NO_CHARGES


@<TRIPOS>ATOM
   1 C1            -0.0168     1.3890     0.0097 C.ar    
   2 C2             0.0021    -0.0041     0.0020 C.ar    
   3 C3             1.2224    -0.6606    -0.0131 C.ar    
   4 C4             2.3820     0.0992    -0.0201 C.ar    
   5 C5             2.2884     1.4815    -0.0118 C.ar    
   6 N6             1.1169     2.0792     0.0026 N.ar    
   7 C7            -1.3131     2.1060     0.0197 C.2     
   8 O8            -2.3544     1.4790     0.0212 O.2     
   9 N9            -1.3379     3.4535     0.0271 N.am    
  10 N10           -4.0732     5.7272     0.0534 N.am    
  11 N11           -4.7377     4.4942     0.0499 N.2     
  12 C12           -3.8404     3.5422     0.0399 C.2     
  13 C13           -2.5688     4.1343     0.0366 C.2     
  14 C14           -2.7375     5.4816     0.0451 C.2     
  15 S15           -4.7895     7.2203     0.0593 S.o2    
  16 O16           -3.8372     8.1244    -0.4836 O.2     
  17 O17           -6.0907     7.0433    -0.4837 O.2     
  18 C18           -4.0266     8.3846     2.4116 C.ar    
  19 C19           -5.0126     7.6851     1.7442 C.ar    
  20 C20           -6.1813     7.3525     2.4147 C.ar    
  21 C21           -6.3159     7.7373     3.7375 C.ar    
  22 C22           -5.2831     8.4391     4.3455 C.ar    
  23 N23           -4.1837     8.7373     3.6732 N.ar    
  24 O24           -5.4028     8.8220     5.6416 O.3     
  25 C25           -4.3061     9.5408     6.2096 C.3     
  26 H26           -0.9212    -0.5644     0.0082 H       
  27 H27            1.2690    -1.7395    -0.0190 H       
  28 H28            3.3489    -0.3818    -0.0315 H       
  29 H29            3.1898     2.0764    -0.0168 H       
  30 H30           -0.5069     3.9539     0.0259 H       
  31 H31           -4.0440     2.4815     0.0350 H       
  32 H32           -1.9523     6.2231     0.0452 H       
  33 H33           -3.1133     8.6420     1.8958 H       
  34 H34           -6.9680     6.8061     1.9157 H       
  35 H35           -7.2122     7.4954     4.2893 H       
  36 H36           -3.4076     8.9252     6.1679 H       
  37 H37           -4.1434    10.4598     5.6465 H       
  38 H38           -4.5309     9.7857     7.2477 H       
@<TRIPOS>BOND
   1    1    2 ar
   2    1    6 ar
   3    1    7 1
   4    2    3 ar
   5    2   26 1
   6    3    4 ar
   7    3   27 1
   8    4    5 ar
   9    4   28 1
  10    5    6 ar
  11    5   29 1
  12    7    8 2
  13    7    9 am
  14    9   13 1
  15    9   30 1
  16   10   11 1
  17   10   14 1
  18   10   15 am
  19   11   12 2
  20   12   13 1
  21   12   31 1
  22   13   14 2
  23   14   32 1
  24   15   16 2
  25   15   17 2
  26   15   19 1
  27   18   19 ar
  28   18   23 ar
  29   18   33 1
  30   19   20 ar
  31   20   21 ar
  32   20   34 1
  33   21   22 ar
  34   21   35 1
  35   22   23 ar
  36   22   24 1
  37   24   25 1
  38   25   36 1
  39   25   37 1
  40   25   38 1

#	End of record

