#	Name: ASD03430604
#	Creating user name:	WinNT
#	Creation time:	15. 06. 2019 20:41

#	Modifying user name:	WinNT
#	Modification time:	15. 06. 2019 20:41

#	Program:	/corina/corina34_cracker 3.40 0067  02.08.2006

@<TRIPOS>MOLECULE
ASD03430604
  19   20    0    0    0
SMALL
NO_CHARGES


@<TRIPOS>ATOM
   1 O1            -0.0164     1.3579     0.0095 O.3     
   2 C2             0.0021    -0.0041     0.0020 C.ar    
   3 C3             1.1498    -0.6974    -0.3640 C.ar    
   4 O4             2.2829    -0.0311    -0.7183 O.3     
   5 C5             2.1357     1.3508    -1.0625 C.3     
   6 C6             1.2535     2.0189     0.0009 C.3     
   7 C7             1.1473    -2.0839    -0.3695 C.ar    
   8 C8             0.0025    -2.7774    -0.0086 C.ar    
   9 C9            -1.1415    -2.0837     0.3589 C.ar    
  10 C10           -1.1408    -0.7009     0.3638 C.ar    
  11 O11            0.0007    -4.1374    -0.0153 O.3     
  12 Cl12          -2.5748    -2.9522     0.8118 Cl      
  13 H13            3.1142     1.8308    -1.0831 H       
  14 H14            1.6623     1.4377    -2.0405 H       
  15 H15            1.1179     3.0725    -0.2431 H       
  16 H16            1.7232     1.9254     0.9801 H       
  17 H17            2.0378    -2.6240    -0.6554 H       
  18 H18           -2.0323    -0.1625     0.6501 H       
  19 H19            0.2682    -4.5352     0.8245 H       
@<TRIPOS>BOND
   1    1    2 1
   2    1    6 1
   3    2    3 ar
   4    2   10 ar
   5    3    4 1
   6    3    7 ar
   7    4    5 1
   8    5    6 1
   9    5   13 1
  10    5   14 1
  11    6   15 1
  12    6   16 1
  13    7    8 ar
  14    7   17 1
  15    8    9 ar
  16    8   11 1
  17    9   10 ar
  18    9   12 1
  19   10   18 1
  20   11   19 1

#	End of record

