#	Name: ASD04590754
#	Creating user name:	WinNT
#	Creation time:	15. 06. 2019 20:51

#	Modifying user name:	WinNT
#	Modification time:	15. 06. 2019 20:51

#	Program:	/corina/corina34_cracker 3.40 0067  02.08.2006

@<TRIPOS>MOLECULE
ASD04590754
  37   39    0    0    0
SMALL
NO_CHARGES


@<TRIPOS>ATOM
   1 N1            -0.0365     1.1630     0.0078 N.ar    
   2 C2             0.0485    -0.1634    -0.0187 C.ar    
   3 N3             1.2093    -0.7992    -0.0401 N.ar    
   4 C4             2.3508    -0.1194    -0.0359 C.ar    
   5 C5             2.2996     1.2933    -0.0080 C.ar    
   6 C6             1.0464     1.9174     0.0140 C.ar    
   7 N7             3.6687    -0.4804    -0.0532 N.pl3   
   8 C8             4.4491     0.6665    -0.0370 C.2     
   9 C9             3.6341     1.7578    -0.0094 C.2     
  10 C10            5.9139     0.6988    -0.0479 C.2     
  11 O11            6.6146    -0.4506     0.0389 O.3     
  12 O12            6.4980     1.7620    -0.1351 O.2     
  13 C13            4.1751    -1.8548    -0.0832 C.3     
  14 C14            3.7981    -2.5839     1.2183 C.3     
  15 C15            2.9184    -3.7842     0.8121 C.3     
  16 C16            3.3110    -4.0618    -0.6603 C.3     
  17 C17            3.5113    -2.6375    -1.2349 C.3     
  18 S18           -1.4380    -1.1095    -0.0248 S.3     
  19 Br19           4.1881     3.5655     0.0215 Br      
  20 C20            8.0575    -0.3545    -0.0916 C.3     
  21 C21           -2.6601     0.2251     0.0111 C.3     
  22 H22            0.9676     2.9943     0.0352 H       
  23 H23            5.2578    -1.8508    -0.2088 H       
  24 H24            4.6978    -2.9346     1.7240 H       
  25 H25            3.2384    -1.9152     1.8723 H       
  26 H26            3.1419    -4.6495     1.4361 H       
  27 H27            1.8622    -3.5244     0.8828 H       
  28 H28            4.2379    -4.6330    -0.7118 H       
  29 H29            2.5071    -4.5798    -1.1833 H       
  30 H30            2.5509    -2.1924    -1.4948 H       
  31 H31            4.1675    -2.6659    -2.1048 H       
  32 H32            8.3051     0.1483    -1.0265 H       
  33 H33            8.4609     0.2156     0.7453 H       
  34 H34            8.4898    -1.3551    -0.0916 H       
  35 H35           -2.5192     0.8227     0.9118 H       
  36 H36           -2.5338     0.8573    -0.8678 H       
  37 H37           -3.6635    -0.2009     0.0111 H       
@<TRIPOS>BOND
   1    1    2 ar
   2    1    6 ar
   3    2    3 ar
   4    2   18 1
   5    3    4 ar
   6    4    5 ar
   7    4    7 1
   8    5    6 ar
   9    5    9 1
  10    6   22 1
  11    7    8 1
  12    7   13 1
  13    8    9 2
  14    8   10 1
  15    9   19 1
  16   10   11 1
  17   10   12 2
  18   11   20 1
  19   13   14 1
  20   13   17 1
  21   13   23 1
  22   14   15 1
  23   14   24 1
  24   14   25 1
  25   15   16 1
  26   15   26 1
  27   15   27 1
  28   16   17 1
  29   16   28 1
  30   16   29 1
  31   17   30 1
  32   17   31 1
  33   18   21 1
  34   20   32 1
  35   20   33 1
  36   20   34 1
  37   21   35 1
  38   21   36 1
  39   21   37 1

#	End of record

