#	Name: ASD01030040
#	Creating user name:	WinNT
#	Creation time:	15. 06. 2019 18:58

#	Modifying user name:	WinNT
#	Modification time:	15. 06. 2019 18:58

#	Program:	/corina/corina34_cracker 3.40 0067  02.08.2006

@<TRIPOS>MOLECULE
ASD01030040
  50   53    0    0    0
SMALL
NO_CHARGES


@<TRIPOS>ATOM
   1 O1            -0.0173     1.4248     0.0099 O.3     
   2 C2             0.0021    -0.0041     0.0020 C.3     
   3 C3             0.7175    -0.5102     1.2573 C.3     
   4 C4             2.1334     0.0727     1.2986 C.3     
   5 C5             2.0458     1.6014     1.2560 C.3     
   6 C6             1.2791     2.0260     0.0007 C.3     
   7 O7             1.3593     2.0730     2.4172 O.3     
   8 O8            -0.0042    -0.0946     2.4186 O.3     
   9 O9             2.7834    -0.3354     2.5040 O.3     
  10 C10           -1.4332    -0.5337    -0.0158 C.3     
  11 O11            1.9937     1.6000    -1.1611 O.3     
  12 C12            1.5629     2.0728    -2.3566 C.ar    
  13 C13            1.7567     2.1982    -4.7707 C.ar    
  14 C14            0.6643     3.0561    -4.8076 C.ar    
  15 C15            0.0316     3.4227    -3.6295 C.ar    
  16 C16            0.4733     2.9384    -2.4158 C.ar    
  17 C17            2.2128     1.6993    -3.5349 C.ar    
  18 C18            3.3717     0.7864    -3.4971 C.2     
  19 C19            3.8454     0.1697    -4.7513 C.ar    
  20 C20            3.3929     0.6670    -5.9887 C.ar    
  21 C21            2.4453     1.8022    -6.0182 C.2     
  22 C22            3.8391     0.0872    -7.1704 C.ar    
  23 C23            4.7388    -0.9038    -4.7230 C.ar    
  24 C24            5.1728    -1.4702    -5.9187 C.ar    
  25 C25            4.7257    -0.9773    -7.1275 C.ar    
  26 O26            2.2352     2.4017    -7.0541 O.2     
  27 O27            3.9303     0.5454    -2.4442 O.2     
  28 O28            5.1813    -1.3913    -3.5376 O.3     
  29 C29            5.2054    -1.6021    -8.4122 C.3     
  30 O30           -2.0645    -0.1576    -1.2414 O.3     
  31 H31            0.5305    -0.3556    -0.8842 H       
  32 H32            0.7722    -1.5985     1.2315 H       
  33 H33            2.6999    -0.2842     0.4385 H       
  34 H34            3.0505     2.0232     1.2292 H       
  35 H35            1.1765     3.1110    -0.0129 H       
  36 H36            1.2673     3.0348     2.4562 H       
  37 H37            0.3934    -0.3811     3.2522 H       
  38 H38            3.6861    -0.0014     2.5966 H       
  39 H39           -1.4205    -1.6204     0.0677 H       
  40 H40           -1.9869    -0.1113     0.8227 H       
  41 H41            0.3111     3.4408    -5.7529 H       
  42 H42           -0.8170     4.0898    -3.6629 H       
  43 H43           -0.0291     3.2319    -1.5059 H       
  44 H44            3.4948     0.4656    -8.1215 H       
  45 H45            5.8634    -2.3003    -5.8999 H       
  46 H46            4.6305    -2.0973    -3.1725 H       
  47 H47            6.1109    -1.0959    -8.7465 H       
  48 H48            5.4199    -2.6577    -8.2450 H       
  49 H49            4.4322    -1.5048    -9.1744 H       
  50 H50           -2.9793    -0.4606    -1.3218 H       
@<TRIPOS>BOND
   1    1    2 1
   2    1    6 1
   3    2    3 1
   4    2   10 1
   5    2   31 1
   6    3    4 1
   7    3    8 1
   8    3   32 1
   9    4    5 1
  10    4    9 1
  11    4   33 1
  12    5    6 1
  13    5    7 1
  14    5   34 1
  15    6   11 1
  16    6   35 1
  17    7   36 1
  18    8   37 1
  19    9   38 1
  20   10   30 1
  21   10   39 1
  22   10   40 1
  23   11   12 1
  24   12   17 ar
  25   12   16 ar
  26   13   14 ar
  27   13   17 ar
  28   13   21 1
  29   14   15 ar
  30   14   41 1
  31   15   16 ar
  32   15   42 1
  33   16   43 1
  34   17   18 1
  35   18   19 1
  36   18   27 2
  37   19   23 ar
  38   19   20 ar
  39   20   21 1
  40   20   22 ar
  41   21   26 2
  42   22   25 ar
  43   22   44 1
  44   23   24 ar
  45   23   28 1
  46   24   25 ar
  47   24   45 1
  48   25   29 1
  49   28   46 1
  50   29   47 1
  51   29   48 1
  52   29   49 1
  53   30   50 1

#	End of record

