#	Name: ASD03331770
#	Creating user name:	WinNT
#	Creation time:	15. 06. 2019 20:39

#	Modifying user name:	WinNT
#	Modification time:	15. 06. 2019 20:39

#	Program:	/corina/corina34_cracker 3.40 0067  02.08.2006

@<TRIPOS>MOLECULE
ASD03331770
  50   53    0    0    0
SMALL
NO_CHARGES


@<TRIPOS>ATOM
   1 C1             0.0314     1.0596     1.6958 C.ar    
   2 C2             0.1376    -0.1049     0.9608 C.ar    
   3 C3             1.0402    -1.0875     1.3457 C.ar    
   4 C4             1.8337    -0.8964     2.4690 C.ar    
   5 C5             1.7236     0.2699     3.2005 C.ar    
   6 C6             0.8234     1.2476     2.8149 C.ar    
   7 Cl7            0.6875     2.7124     3.7365 Cl      
   8 N8             1.1495    -2.2689     0.6027 N.am    
   9 C9             2.3406    -2.8905     0.4968 C.2     
  10 N10            2.4257    -4.0822    -0.1271 N.am    
  11 O11            3.3384    -2.3763     0.9640 O.2     
  12 C12            3.6759    -4.6766    -0.3328 C.ar    
  13 C13            3.7998    -6.0573    -0.3077 C.ar    
  14 C14            5.0456    -6.6443    -0.5134 C.ar    
  15 C15            6.1608    -5.8410    -0.7433 C.ar    
  16 C16            6.0293    -4.4666    -0.7664 C.ar    
  17 C17            4.7924    -3.8834    -0.5680 C.ar    
  18 C18            5.1854    -8.1215    -0.4874 C.ar    
  19 C19            4.0702    -8.9248    -0.2571 C.ar    
  20 C20            4.2016   -10.2992    -0.2331 C.ar    
  21 C21            5.4372   -10.8829    -0.4371 C.ar    
  22 C22            6.5550   -10.0895    -0.6676 C.ar    
  23 C23            6.4301    -8.7086    -0.6988 C.ar    
  24 N24            7.8028   -10.6830    -0.8729 N.3     
  25 C25            8.8777    -9.8769    -0.2657 C.3     
  26 C26            9.6333   -10.7916     0.7212 C.3     
  27 C27            9.3055   -12.2153     0.1990 C.3     
  28 C28            7.8460   -12.0409    -0.2899 C.3     
  29 H29           -0.6672     1.8261     1.3943 H       
  30 H30           -0.4810    -0.2512     0.0877 H       
  31 H31            2.5362    -1.6592     2.7706 H       
  32 H32            2.3406     0.4190     4.0743 H       
  33 H33            0.3680    -2.6401     0.1642 H       
  34 H34            1.6204    -4.5278    -0.4335 H       
  35 H35            2.9326    -6.6757    -0.1288 H       
  36 H36            7.1283    -6.2935    -0.9032 H       
  37 H37            6.8949    -3.8458    -0.9443 H       
  38 H38            4.6947    -2.8080    -0.5873 H       
  39 H39            3.1028    -8.4721    -0.0968 H       
  40 H40            3.3360   -10.9197    -0.0540 H       
  41 H41            5.5347   -11.9583    -0.4170 H       
  42 H42            7.2972    -8.0902    -0.8778 H       
  43 H43            9.5590    -9.5239    -1.0398 H       
  44 H44            8.4488    -9.0292     0.2686 H       
  45 H45           10.7059   -10.6027     0.6778 H       
  46 H46            9.2579   -10.6573     1.7357 H       
  47 H47            9.9634   -12.4898    -0.6255 H       
  48 H48            9.3629   -12.9489     1.0032 H       
  49 H49            7.1534   -12.1162     0.5484 H       
  50 H50            7.6081   -12.7871    -1.0480 H       
@<TRIPOS>BOND
   1    1    2 ar
   2    1    6 ar
   3    1   29 1
   4    2    3 ar
   5    2   30 1
   6    3    4 ar
   7    3    8 1
   8    4    5 ar
   9    4   31 1
  10    5    6 ar
  11    5   32 1
  12    6    7 1
  13    8    9 am
  14    8   33 1
  15    9   10 am
  16    9   11 2
  17   10   12 1
  18   10   34 1
  19   12   13 ar
  20   12   17 ar
  21   13   14 ar
  22   13   35 1
  23   14   15 ar
  24   14   18 1
  25   15   16 ar
  26   15   36 1
  27   16   17 ar
  28   16   37 1
  29   17   38 1
  30   18   19 ar
  31   18   23 ar
  32   19   20 ar
  33   19   39 1
  34   20   21 ar
  35   20   40 1
  36   21   22 ar
  37   21   41 1
  38   22   23 ar
  39   22   24 1
  40   23   42 1
  41   24   25 1
  42   24   28 1
  43   25   26 1
  44   25   43 1
  45   25   44 1
  46   26   27 1
  47   26   45 1
  48   26   46 1
  49   27   28 1
  50   27   47 1
  51   27   48 1
  52   28   49 1
  53   28   50 1

#	End of record

