#	Name: ASD01028342
#	Creating user name:	WinNT
#	Creation time:	15. 06. 2019 18:57

#	Modifying user name:	WinNT
#	Modification time:	15. 06. 2019 18:57

#	Program:	/corina/corina34_cracker 3.40 0067  02.08.2006

@<TRIPOS>MOLECULE
ASD01028342
  45   49    0    0    0
SMALL
NO_CHARGES


@<TRIPOS>ATOM
   1 C1            -0.0172     1.4147     0.0098 C.ar    
   2 C2             0.0021    -0.0041     0.0020 C.ar    
   3 C3             1.2101     2.1134     0.0019 C.ar    
   4 C4             2.3775     1.3690    -0.0133 C.ar    
   5 C5             2.3123    -0.0181    -0.0202 C.ar    
   6 N6             1.1652    -0.6588    -0.0123 N.ar    
   7 O7             1.2440     3.4682     0.0084 O.3     
   8 C8             2.5331     4.0849    -0.0005 C.3     
   9 C9             2.3731     5.5834     0.0086 C.2     
  10 N10            2.2987     6.3706     1.1039 N.pl3   
  11 C11            2.1578     7.6564     0.6380 C.2     
  12 N12            2.1539     7.5865    -0.6831 N.2     
  13 N13            2.2869     6.3580    -1.0441 N.2     
  14 N14            2.3364     6.1240     2.4778 N.2     
  15 C15            2.2379     7.1151     3.3359 C.2     
  16 C16            2.0919     8.4455     2.8890 C.2     
  17 C17            2.0528     8.7169     1.5578 C.2     
  18 C18            2.2802     6.8313     4.7916 C.ar    
  19 C19           -1.2298    -0.6801     0.0102 C.ar    
  20 C20            2.4236     5.5213     5.2448 C.ar    
  21 C21            2.4629     5.2631     6.6000 C.ar    
  22 C22            2.3602     6.3017     7.5078 C.ar    
  23 C23            2.2177     7.6039     7.0635 C.ar    
  24 C24            2.1826     7.8743     5.7106 C.ar    
  25 C25           -2.3908     0.0619     0.0254 C.ar    
  26 N26           -2.3686     1.3914     0.0322 N.ar    
  27 C27           -1.2494     2.0789     0.0309 C.ar    
  28 O28           -3.5862    -0.5800     0.0330 O.3     
  29 C29           -4.7600     0.2349     0.0486 C.3     
  30 H30            3.3363     1.8659    -0.0202 H       
  31 H31            3.2306    -0.5865    -0.0321 H       
  32 H32            3.0909     3.7737     0.8827 H       
  33 H33            3.0742     3.7827    -0.8972 H       
  34 H34            2.0115     9.2493     3.6058 H       
  35 H35            1.9412     9.7333     1.2101 H       
  36 H36           -1.2659    -1.7595     0.0045 H       
  37 H37            2.5035     4.7096     4.5368 H       
  38 H38            2.5736     4.2482     6.9523 H       
  39 H39            2.3910     6.0951     8.5674 H       
  40 H40            2.1376     8.4110     7.7767 H       
  41 H41            2.0713     8.8914     5.3648 H       
  42 H42           -1.2799     3.1584     0.0367 H       
  43 H43           -5.6445    -0.4021     0.0533 H       
  44 H44           -4.7571     0.8591     0.9422 H       
  45 H45           -4.7738     0.8692    -0.8377 H       
@<TRIPOS>BOND
   1    1    2 ar
   2    1    3 ar
   3    1   27 ar
   4    2   19 ar
   5    2    6 ar
   6    3    4 ar
   7    3    7 1
   8    4    5 ar
   9    4   30 1
  10    5    6 ar
  11    5   31 1
  12    7    8 1
  13    8    9 1
  14    8   32 1
  15    8   33 1
  16    9   10 1
  17    9   13 2
  18   10   11 1
  19   10   14 1
  20   11   12 2
  21   11   17 1
  22   12   13 1
  23   14   15 2
  24   15   16 1
  25   15   18 1
  26   16   17 2
  27   16   34 1
  28   17   35 1
  29   18   20 ar
  30   18   24 ar
  31   19   25 ar
  32   19   36 1
  33   20   21 ar
  34   20   37 1
  35   21   22 ar
  36   21   38 1
  37   22   23 ar
  38   22   39 1
  39   23   24 ar
  40   23   40 1
  41   24   41 1
  42   25   26 ar
  43   25   28 1
  44   26   27 ar
  45   27   42 1
  46   28   29 1
  47   29   43 1
  48   29   44 1
  49   29   45 1

#	End of record

