#	Name: ASD01883456
#	Creating user name:	WinNT
#	Creation time:	15. 06. 2019 19:46

#	Modifying user name:	WinNT
#	Modification time:	15. 06. 2019 19:46

#	Program:	/corina/corina34_cracker 3.40 0067  02.08.2006

@<TRIPOS>MOLECULE
ASD01883456
  69   70    0    0    0
SMALL
NO_CHARGES


@<TRIPOS>ATOM
   1 N1            -0.0080     1.3271     0.0354 N.am    
   2 C2            -0.3623     0.6471    -1.0708 C.2     
   3 C3            -1.5938    -0.0487    -1.1070 C.2     
   4 C4            -2.4239    -0.0108     0.0261 C.2     
   5 C5            -1.9981     0.7175     1.1524 C.2     
   6 C6            -0.8092     1.3586     1.1319 C.2     
   7 O7             0.3768     0.6309    -2.0406 O.2     
   8 C8            -1.9868    -0.7769    -2.2757 C.1     
   9 N9            -3.6308    -0.6731     0.0341 N.pl3   
  10 C10           -4.8918     0.0702     0.1608 C.3     
  11 C11           -5.6944    -0.5154     1.3268 C.3     
  12 C12           -5.8707    -2.0207     1.1144 C.3     
  13 C13           -4.4985    -2.6976     1.0843 C.3     
  14 C14           -3.6827    -2.1362    -0.0901 C.3     
  15 C15            1.2701     2.0427     0.0594 C.3     
  16 C16            1.0645     3.4711    -0.4488 C.3     
  17 C17            2.3993     4.2185    -0.4237 C.3     
  18 C18            2.2199     5.6041    -1.0473 C.3     
  19 C19            2.8729     4.3680     1.0235 C.3     
  20 N20           -6.6684    -2.5800     2.2139 N.3     
  21 C21           -6.9591    -4.0014     1.9834 C.3     
  22 C22           -7.9886    -4.4840     3.0071 C.3     
  23 C23           -8.2869    -5.9421     2.7706 C.ar    
  24 C24           -7.5389    -6.9130     3.4095 C.ar    
  25 C25           -7.8125    -8.2507     3.1924 C.ar    
  26 C26           -8.8343    -8.6171     2.3369 C.ar    
  27 C27           -9.5831    -7.6460     1.6985 C.ar    
  28 C28           -9.3124    -6.3086     1.9188 C.ar    
  29 C29           -5.9962    -2.3829     3.5051 C.3     
  30 C30           -6.9962    -9.3093     3.8883 C.3     
  31 F31           -7.5920    -9.6272     5.1135 F       
  32 F32           -6.9377   -10.4546     3.0871 F       
  33 F33           -5.7012    -8.8287     4.1102 F       
  34 N34           -2.2985    -1.3546    -3.2029 N.1     
  35 H35           -2.6200     0.7607     2.0343 H       
  36 H36           -0.4929     1.9141     2.0024 H       
  37 H37           -4.6785     1.1212     0.3555 H       
  38 H38           -5.4655    -0.0236    -0.7613 H       
  39 H39           -5.1602    -0.3399     2.2606 H       
  40 H40           -6.6729    -0.0372     1.3715 H       
  41 H41           -6.3831    -2.1964     0.1685 H       
  42 H42           -3.9756    -2.5016     2.0204 H       
  43 H43           -4.6258    -3.7726     0.9564 H       
  44 H44           -4.1593    -2.4118    -1.0309 H       
  45 H45           -2.6709    -2.5405    -0.0585 H       
  46 H46            1.6512     2.0716     1.0802 H       
  47 H47            1.9865     1.5287    -0.5814 H       
  48 H48            0.6835     3.4422    -1.4696 H       
  49 H49            0.3482     3.9852     0.1920 H       
  50 H50            3.1407     3.6573    -0.9924 H       
  51 H51            1.4785     6.1652    -0.4785 H       
  52 H52            3.1708     6.1365    -1.0294 H       
  53 H53            1.8825     5.4975    -2.0783 H       
  54 H54            3.8239     4.9005     1.0414 H       
  55 H55            2.1315     4.9292     1.5923 H       
  56 H56            3.0008     3.3809     1.4678 H       
  57 H57           -7.3581    -4.1321     0.9775 H       
  58 H58           -6.0423    -4.5815     2.0888 H       
  59 H59           -7.5896    -4.3532     4.0130 H       
  60 H60           -8.9054    -3.9038     2.9016 H       
  61 H61           -6.7404    -6.6266     4.0779 H       
  62 H62           -9.0476    -9.6621     2.1668 H       
  63 H63          -10.3814    -7.9323     1.0298 H       
  64 H64           -9.8974    -5.5500     1.4202 H       
  65 H65           -5.8556    -1.3167     3.6825 H       
  66 H66           -6.6081    -2.8062     4.3017 H       
  67 H67           -5.0260    -2.8796     3.4893 H       
  68 Cl68           8.8239    11.1652    10.1135 Cl      
  69 H69            8.8239    12.5352    10.1135 H       
@<TRIPOS>BOND
   1    1    2 am
   2    1   15 1
   3    1    6 1
   4    2    3 1
   5    2    7 2
   6    3    4 2
   7    3    8 1
   8    4    5 1
   9    4    9 1
  10    5    6 2
  11    5   35 1
  12    6   36 1
  13    8   34 3
  14    9   10 1
  15    9   14 1
  16   10   11 1
  17   10   37 1
  18   10   38 1
  19   11   12 1
  20   11   39 1
  21   11   40 1
  22   12   13 1
  23   12   20 1
  24   12   41 1
  25   13   14 1
  26   13   42 1
  27   13   43 1
  28   14   44 1
  29   14   45 1
  30   15   16 1
  31   15   46 1
  32   15   47 1
  33   16   17 1
  34   16   48 1
  35   16   49 1
  36   17   18 1
  37   17   19 1
  38   17   50 1
  39   18   51 1
  40   18   52 1
  41   18   53 1
  42   19   54 1
  43   19   55 1
  44   19   56 1
  45   20   21 1
  46   20   29 1
  47   21   22 1
  48   21   57 1
  49   21   58 1
  50   22   23 1
  51   22   59 1
  52   22   60 1
  53   23   24 ar
  54   23   28 ar
  55   24   25 ar
  56   24   61 1
  57   25   26 ar
  58   25   30 1
  59   26   27 ar
  60   26   62 1
  61   27   28 ar
  62   27   63 1
  63   28   64 1
  64   29   65 1
  65   29   66 1
  66   29   67 1
  67   30   31 1
  68   30   32 1
  69   30   33 1
  70   68   69 1

#	End of record

