#	Name: ASD01150735
#	Creating user name:	WinNT
#	Creation time:	15. 06. 2019 19:04

#	Modifying user name:	WinNT
#	Modification time:	15. 06. 2019 19:04

#	Program:	/corina/corina34_cracker 3.40 0067  02.08.2006

@<TRIPOS>MOLECULE
ASD01150735
  39   41    0    0    0
SMALL
NO_CHARGES


@<TRIPOS>ATOM
   1 C1             0.0225     1.5117     0.4636 C.2     
   2 C2            -0.4093     1.1957     1.8724 C.3     
   3 N3             3.6002     2.2419    -0.1347 N.ar    
   4 C4             2.4849     1.5941     0.0774 C.ar    
   5 C5             1.2578     2.2660     0.2270 C.ar    
   6 C6             1.2302     3.6703     0.1464 C.ar    
   7 C7             2.4570     4.3409    -0.0843 C.ar    
   8 C8             2.5121     5.7375    -0.1777 C.ar    
   9 C9             3.7229     6.3553    -0.4031 C.ar    
  10 C10            4.8902     5.5996    -0.5383 C.ar    
  11 C11            4.8599     4.2415    -0.4510 C.ar    
  12 C12            3.6430     3.5786    -0.2220 C.ar    
  13 O13            3.7820     7.7098    -0.4951 O.3     
  14 C14            5.0674     8.2886    -0.7297 C.3     
  15 F15            5.5822     7.8069    -1.9380 F       
  16 F16            4.9468     9.6808    -0.7961 F       
  17 F17            5.9314     7.9447     0.3155 F       
  18 C18            2.5140     0.0899     0.1637 C.3     
  19 C19           -0.0338     4.4197     0.2966 C.ar    
  20 C20           -0.4502     4.8478     1.5595 C.ar    
  21 C21           -1.6312     5.5469     1.6925 C.ar    
  22 C22           -2.4048     5.8248     0.5786 C.ar    
  23 C23           -1.9999     5.4047    -0.6754 C.ar    
  24 C24           -0.8162     4.7090    -0.8249 C.ar    
  25 Cl25          -0.3055     4.1884    -2.4003 Cl      
  26 O26           -0.6491     1.1378    -0.4750 O.2     
  27 H27           -0.4650     2.1179     2.4509 H       
  28 H28           -1.3893     0.7188     1.8537 H       
  29 H29            0.3140     0.5219     2.3316 H       
  30 H30            1.6122     6.3257    -0.0743 H       
  31 H31            5.8306     6.1004    -0.7150 H       
  32 H32            5.7721     3.6734    -0.5580 H       
  33 H33            2.5808    -0.2129     1.2086 H       
  34 H34            1.6029    -0.3169    -0.2750 H       
  35 H35            3.3795    -0.2885    -0.3803 H       
  36 H36            0.1516     4.6314     2.4298 H       
  37 H37           -1.9538     5.8782     2.6685 H       
  38 H38           -3.3292     6.3722     0.6894 H       
  39 H39           -2.6085     5.6247    -1.5400 H       
@<TRIPOS>BOND
   1    1    2 1
   2    1    5 1
   3    1   26 2
   4    2   27 1
   5    2   28 1
   6    2   29 1
   7    3    4 ar
   8    3   12 ar
   9    4    5 ar
  10    4   18 1
  11    5    6 ar
  12    6    7 ar
  13    6   19 1
  14    7    8 ar
  15    7   12 ar
  16    8    9 ar
  17    8   30 1
  18    9   10 ar
  19    9   13 1
  20   10   11 ar
  21   10   31 1
  22   11   12 ar
  23   11   32 1
  24   13   14 1
  25   14   15 1
  26   14   16 1
  27   14   17 1
  28   18   33 1
  29   18   34 1
  30   18   35 1
  31   19   20 ar
  32   19   24 ar
  33   20   21 ar
  34   20   36 1
  35   21   22 ar
  36   21   37 1
  37   22   23 ar
  38   22   38 1
  39   23   24 ar
  40   23   39 1
  41   24   25 1

#	End of record

