#	Name: ASD01881436
#	Creating user name:	WinNT
#	Creation time:	15. 06. 2019 19:42

#	Modifying user name:	WinNT
#	Modification time:	15. 06. 2019 19:42

#	Program:	/corina/corina34_cracker 3.40 0067  02.08.2006

@<TRIPOS>MOLECULE
ASD01881436
  53   56    0    0    0
SMALL
NO_CHARGES


@<TRIPOS>ATOM
   1 O1            -0.2404     1.7428     0.0632 O.3     
   2 C2            -6.5306    -3.5408    -4.8824 C.ar    
   3 C3            -5.5523    -3.1569    -3.9895 C.ar    
   4 C4            -7.2146    -2.5836    -5.6193 C.ar    
   5 C5            -6.9160    -1.2353    -5.4600 C.ar    
   6 C6            -5.9386    -0.8449    -4.5686 C.ar    
   7 C7            -5.2498    -1.8051    -3.8268 C.ar    
   8 C8            -4.1997    -1.3896    -2.8680 C.2     
   9 C9            -4.3671    -1.6051    -1.5129 C.2     
  10 C10           -3.0119    -0.7729    -3.3313 C.2     
  11 C11           -2.0589    -0.3962    -2.4584 C.2     
  12 N12           -2.2182    -0.6000    -1.1179 N.pl3   
  13 C13           -3.3533    -1.2000    -0.6282 C.2     
  14 C14           -1.4431    -0.3292    -0.0315 C.2     
  15 N15           -2.0907    -0.7418     1.0274 N.2     
  16 N16           -3.2192    -1.2583     0.6880 N.2     
  17 C17           -0.0862     0.3264    -0.0466 C.3     
  18 Cl18          -7.7733    -0.0420    -6.3846 Cl      
  19 O19           -8.1779    -2.9654    -6.4981 O.3     
  20 C20           -7.8214    -3.1475    -7.7949 C.ar    
  21 C21           -6.5235    -2.8797    -8.2231 C.ar    
  22 C22           -6.2004    -3.0781    -9.5499 C.ar    
  23 N23           -7.1029    -3.5153   -10.4075 N.ar    
  24 C24           -8.3426    -3.7800   -10.0400 C.ar    
  25 C25           -8.7428    -3.6126    -8.7306 C.ar    
  26 C26            0.7089     3.9621     0.1804 C.3     
  27 C27            0.9934     2.4638     0.0586 C.3     
  28 C28          -10.1605    -3.9174    -8.3202 C.3     
  29 C29           -9.3318    -4.2766   -11.0627 C.3     
  30 C30           -5.6182    -2.2642    -0.9921 C.3     
  31 F31           -5.3937    -3.6367    -0.8402 F       
  32 F32           -5.9581    -1.7075     0.2455 F       
  33 F33           -6.6644    -2.0604    -1.8983 F       
  34 H34           -6.7618    -4.5878    -5.0118 H       
  35 H35           -5.0210    -3.9023    -3.4164 H       
  36 H36           -5.7065     0.2026    -4.4452 H       
  37 H37           -2.8702    -0.6043    -4.3886 H       
  38 H38           -1.1569     0.0726    -2.8230 H       
  39 H39            0.4223     0.0875    -0.9806 H       
  40 H40            0.5041    -0.0410     0.7928 H       
  41 H41           -5.7801    -2.5214    -7.5264 H       
  42 H42           -5.1964    -2.8727    -9.8908 H       
  43 H43            0.1780     4.1566     1.1122 H       
  44 H44            1.6500     4.5121     0.1768 H       
  45 H45            0.0962     4.2852    -0.6612 H       
  46 H46            1.6062     2.1407     0.9002 H       
  47 H47            1.5244     2.2693    -0.8732 H       
  48 H48          -10.2339    -4.9613    -8.0151 H       
  49 H49          -10.4437    -3.2745    -7.4868 H       
  50 H50          -10.8292    -3.7370    -9.1619 H       
  51 H51           -9.3010    -5.3656   -11.0992 H       
  52 H52          -10.3346    -3.9505   -10.7865 H       
  53 H53           -9.0754    -3.8729   -12.0422 H       
@<TRIPOS>BOND
   1    1   17 1
   2    1   27 1
   3    2    3 ar
   4    2    4 ar
   5    2   34 1
   6    3    7 ar
   7    3   35 1
   8    4    5 ar
   9    4   19 1
  10    5    6 ar
  11    5   18 1
  12    6    7 ar
  13    6   36 1
  14    7    8 1
  15    8    9 2
  16    8   10 1
  17    9   30 1
  18    9   13 1
  19   10   11 2
  20   10   37 1
  21   11   12 1
  22   11   38 1
  23   12   13 1
  24   12   14 1
  25   13   16 2
  26   14   15 2
  27   14   17 1
  28   15   16 1
  29   17   39 1
  30   17   40 1
  31   19   20 1
  32   20   21 ar
  33   20   25 ar
  34   21   22 ar
  35   21   41 1
  36   22   23 ar
  37   22   42 1
  38   23   24 ar
  39   24   25 ar
  40   24   29 1
  41   25   28 1
  42   26   27 1
  43   26   43 1
  44   26   44 1
  45   26   45 1
  46   27   46 1
  47   27   47 1
  48   28   48 1
  49   28   49 1
  50   28   50 1
  51   29   51 1
  52   29   52 1
  53   29   53 1
  54   30   31 1
  55   30   32 1
  56   30   33 1

#	End of record

