#	Name: ASD00310118
#	Creating user name:	WinNT
#	Creation time:	15. 06. 2019 18:33

#	Modifying user name:	WinNT
#	Modification time:	15. 06. 2019 18:33

#	Program:	/corina/corina34_cracker 3.40 0067  02.08.2006

@<TRIPOS>MOLECULE
ASD00310118
  40   43    0    0    0
SMALL
NO_CHARGES


@<TRIPOS>ATOM
   1 N1            -0.0163     1.3500     0.0095 N.pl3   
   2 C2             0.0021    -0.0041     0.0020 C.2     
   3 C3             1.2921    -0.4483    -0.0127 C.2     
   4 C4             2.1475     0.7539    -0.0144 C.ar    
   5 C5             3.5229     0.9582    -0.0264 C.ar    
   6 C6             4.0240     2.2541    -0.0243 C.ar    
   7 C7             3.1462     3.3441    -0.0100 C.ar    
   8 C8             1.7849     3.1438     0.0019 C.ar    
   9 C9             1.2694     1.8502    -0.0001 C.ar    
  10 C10            1.7402    -1.8455    -0.0245 C.2     
  11 O11            2.9286    -2.1028    -0.0367 O.2     
  12 O12            0.8341    -2.8441    -0.0217 O.3     
  13 C13            8.2281     2.9098    -0.0589 C.ar    
  14 C14            7.4110     3.5741    -0.9735 C.ar    
  15 C15            6.0502     3.3617    -0.9624 C.ar    
  16 C16            5.4892     2.4824    -0.0365 C.ar    
  17 C17            6.3061     1.8181     0.8781 C.ar    
  18 C18            7.6669     2.0304     0.8670 C.ar    
  19 C19            9.6934     3.1337    -0.0748 C.ar    
  20 C20           10.3697     3.4447     1.1095 C.ar    
  21 C21           11.7391     3.6524     1.0851 C.ar    
  22 C22           12.4336     3.5527    -0.1059 C.ar    
  23 C23           11.7676     3.2457    -1.2790 C.ar    
  24 C24           10.4043     3.0297    -1.2684 C.ar    
  25 O25            9.6859     3.5432     2.2792 O.3     
  26 Cl26           3.7795     4.9605    -0.0068 Cl      
  27 H27           -0.8206     1.8921     0.0164 H       
  28 H28           -0.8729    -0.6372     0.0070 H       
  29 H29            4.1975     0.1148    -0.0370 H       
  30 H30            1.1152     3.9911     0.0128 H       
  31 H31            1.1772    -3.7482    -0.0298 H       
  32 H32            7.8454     4.2553    -1.6903 H       
  33 H33            5.4175     3.8760    -1.6706 H       
  34 H34            5.8715     1.1375     1.5953 H       
  35 H35            8.2995     1.5157     1.5751 H       
  36 H36           12.2646     3.8927     1.9976 H       
  37 H37           13.5012     3.7157    -0.1208 H       
  38 H38           12.3171     3.1703    -2.2058 H       
  39 H39            9.8884     2.7854    -2.1853 H       
  40 H40            9.6208     2.7114     2.7679 H       
@<TRIPOS>BOND
   1    1    2 1
   2    1    9 1
   3    1   27 1
   4    2    3 2
   5    2   28 1
   6    3    4 1
   7    3   10 1
   8    4    5 ar
   9    4    9 ar
  10    5    6 ar
  11    5   29 1
  12    6    7 ar
  13    6   16 1
  14    7    8 ar
  15    7   26 1
  16    8    9 ar
  17    8   30 1
  18   10   11 2
  19   10   12 1
  20   12   31 1
  21   13   14 ar
  22   13   18 ar
  23   13   19 1
  24   14   15 ar
  25   14   32 1
  26   15   16 ar
  27   15   33 1
  28   16   17 ar
  29   17   18 ar
  30   17   34 1
  31   18   35 1
  32   19   20 ar
  33   19   24 ar
  34   20   21 ar
  35   20   25 1
  36   21   22 ar
  37   21   36 1
  38   22   23 ar
  39   22   37 1
  40   23   24 ar
  41   23   38 1
  42   24   39 1
  43   25   40 1

#	End of record

