#	Name: ASD01901188
#	Creating user name:	WinNT
#	Creation time:	15. 06. 2019 19:53

#	Modifying user name:	WinNT
#	Modification time:	15. 06. 2019 19:53

#	Program:	/corina/corina34_cracker 3.40 0067  02.08.2006

@<TRIPOS>MOLECULE
ASD01901188
  54   57    0    0    0
SMALL
NO_CHARGES


@<TRIPOS>ATOM
   1 C1             0.2151     1.5470    -1.9392 C.ar    
   2 C2             0.2613     0.1895    -2.1784 C.ar    
   3 C3             1.4799    -0.4500    -2.3227 C.ar    
   4 C4             2.6603     0.2660    -2.2282 C.ar    
   5 C5             2.6299     1.6239    -1.9889 C.ar    
   6 C6             1.4030     2.2767    -1.8425 C.ar    
   7 C7             1.3632     3.6865    -1.5948 C.1     
   8 C8             1.3306     4.8424    -1.3917 C.1     
   9 C9             1.2909     6.2522    -1.1439 C.ar    
  10 C10            2.4802     6.9804    -1.0476 C.ar    
  11 C11            2.4380     8.3389    -0.8087 C.ar    
  12 C12            1.2138     8.9838    -0.6638 C.ar    
  13 C13            0.0282     8.2622    -0.7591 C.ar    
  14 C14            0.0625     6.9045    -1.0035 C.ar    
  15 N15            1.1749    10.3645    -0.4206 N.am    
  16 C16            1.1265    11.2191    -1.4588 C.2     
  17 C17            1.1849    12.7060    -1.2138 C.3     
  18 C18            0.4697    13.0276     0.1005 C.3     
  19 N19            0.9124    12.0954     1.1391 N.am    
  20 C20            1.1808    10.8137     0.8454 C.2     
  21 O21            1.0365    10.7940    -2.5907 O.2     
  22 O22            1.4403    10.0417     1.7475 O.2     
  23 C23            0.8081    14.4588     0.5221 C.3     
  24 C24           -1.0199    12.8987    -0.0881 C.ar    
  25 C25           -1.7628    12.0680     0.7371 C.ar    
  26 C26           -3.1303    11.9807     0.5269 C.ar    
  27 C27           -3.7038    12.7193    -0.4910 C.ar    
  28 N28           -2.9660    13.4993    -1.2565 N.ar    
  29 C29           -1.6636    13.6113    -1.0817 C.ar    
  30 F30           -1.1584     8.8925    -0.6177 F       
  31 F31            3.5870     9.0434    -0.7150 F       
  32 C32            1.0589    12.5674     2.5182 C.3     
  33 C33           -5.1893    12.6318    -0.7290 C.3     
  34 H34           -0.7368     2.0456    -1.8312 H       
  35 H35           -0.6559    -0.3758    -2.2530 H       
  36 H36            1.5099    -1.5133    -2.5095 H       
  37 H37            3.6078    -0.2399    -2.3419 H       
  38 H38            3.5520     2.1813    -1.9151 H       
  39 H39            3.4309     6.4804    -1.1596 H       
  40 H40           -0.8584     6.3458    -1.0821 H       
  41 H41            2.2255    13.0239    -1.1494 H       
  42 H42            0.6932    13.2298    -2.0336 H       
  43 H43            1.8854    14.5522     0.6590 H       
  44 H44            0.4786    15.1529    -0.2510 H       
  45 H45            0.3014    14.6911     1.4588 H       
  46 H46           -1.2873    11.5022     1.5246 H       
  47 H47           -3.7398    11.3433     1.1503 H       
  48 H48           -1.0929    14.2642    -1.7255 H       
  49 H49            0.1174    12.4320     3.0505 H       
  50 H50            1.8431    11.9969     3.0160 H       
  51 H51            1.3254    13.6243     2.5142 H       
  52 H52           -5.6977    13.3914    -0.1352 H       
  53 H53           -5.3983    12.7968    -1.7860 H       
  54 H54           -5.5463    11.6439    -0.4380 H       
@<TRIPOS>BOND
   1    1    2 ar
   2    1    6 ar
   3    1   34 1
   4    2    3 ar
   5    2   35 1
   6    3    4 ar
   7    3   36 1
   8    4    5 ar
   9    4   37 1
  10    5    6 ar
  11    5   38 1
  12    6    7 1
  13    7    8 3
  14    8    9 1
  15    9   10 ar
  16    9   14 ar
  17   10   11 ar
  18   10   39 1
  19   11   12 ar
  20   11   31 1
  21   12   13 ar
  22   12   15 1
  23   13   14 ar
  24   13   30 1
  25   14   40 1
  26   15   16 am
  27   15   20 am
  28   16   17 1
  29   16   21 2
  30   17   18 1
  31   17   41 1
  32   17   42 1
  33   18   19 1
  34   18   23 1
  35   18   24 1
  36   19   20 am
  37   19   32 1
  38   20   22 2
  39   23   43 1
  40   23   44 1
  41   23   45 1
  42   24   25 ar
  43   24   29 ar
  44   25   26 ar
  45   25   46 1
  46   26   27 ar
  47   26   47 1
  48   27   28 ar
  49   27   33 1
  50   28   29 ar
  51   29   48 1
  52   32   49 1
  53   32   50 1
  54   32   51 1
  55   33   52 1
  56   33   53 1
  57   33   54 1

#	End of record

