#	Name: ASD03330287
#	Creating user name:	WinNT
#	Creation time:	15. 06. 2019 20:36

#	Modifying user name:	WinNT
#	Modification time:	15. 06. 2019 20:36

#	Program:	/corina/corina34_cracker 3.40 0067  02.08.2006

@<TRIPOS>MOLECULE
ASD03330287
  60   63    0    0    0
SMALL
NO_CHARGES


@<TRIPOS>ATOM
   1 C1            -0.9293     1.1170     0.1190 C.3     
   2 N2            -0.9969    -0.3441    -0.0226 N.3     
   3 C3            -0.3385    -0.7907    -1.2637 C.3     
   4 C4             1.0255    -0.1526    -1.3217 C.2     
   5 N5             1.3993     0.9063    -0.5424 N.pl3   
   6 C6             0.5105     1.5435     0.4334 C.3     
   7 C7             2.0867    -0.4722    -2.1009 C.2     
   8 N8             3.0969     0.3850    -1.7934 N.2     
   9 C9             2.6860     1.2132    -0.8566 C.2     
  10 C10            3.4869     2.2938    -0.2499 C.2     
  11 C11            3.5493     2.4952     1.0681 C.2     
  12 C12            2.1375    -1.5532    -3.1004 C.2     
  13 O13            1.1628    -2.2569    -3.2851 O.2     
  14 C14            3.3145    -2.8374    -4.8041 C.3     
  15 N15            3.2640    -1.7624    -3.8101 N.am    
  16 C16            2.7468    -2.3315    -6.1318 C.3     
  17 C17            3.5301    -1.0977    -6.5843 C.3     
  18 C18            2.8689    -3.4297    -7.1901 C.3     
  19 C19            1.2736    -1.9614    -5.9485 C.3     
  20 C20           -2.3873    -0.8148     0.0344 C.3     
  21 C21            4.7438    -3.2719    -5.0020 C.2     
  22 O22            5.6518    -2.5445    -4.6593 O.2     
  23 N23            5.0133    -4.4689    -5.5597 N.am    
  24 C24            6.3984    -4.9354    -5.6595 C.3     
  25 S25            4.5844     3.8552     1.4554 S.3     
  26 C26            4.9444     4.1594    -0.2391 C.ar    
  27 C27            4.2835     3.2298    -1.0419 C.ar    
  28 C28            5.7507     5.1376    -0.8315 C.ar    
  29 C29            5.8866     5.1873    -2.1986 C.ar    
  30 C30            5.2242     4.2668    -2.9987 C.ar    
  31 C31            4.4421     3.3019    -2.4405 C.ar    
  32 H32           -1.2513     1.5863    -0.8106 H       
  33 H33           -1.5859     1.4332     0.9295 H       
  34 H34           -0.2377    -1.8760    -1.2575 H       
  35 H35           -0.9280    -0.4795    -2.1261 H       
  36 H36            0.5979     2.6274     0.3578 H       
  37 H37            0.7780     1.2216     1.4398 H       
  38 H38            3.0286     1.8972     1.8014 H       
  39 H39            2.7226    -3.6834    -4.4547 H       
  40 H40            4.0413    -1.2012    -3.6628 H       
  41 H41            4.5797    -1.3614    -6.7148 H       
  42 H42            3.1257    -0.7373    -7.5302 H       
  43 H43            3.4431    -0.3154    -5.8303 H       
  44 H44            2.3064    -4.3068    -6.8702 H       
  45 H45            2.4693    -3.0674    -8.1373 H       
  46 H46            3.9180    -3.6971    -7.3168 H       
  47 H47            1.1866    -1.1791    -5.1945 H       
  48 H48            0.8691    -1.6010    -6.8944 H       
  49 H49            0.7155    -2.8404    -5.6261 H       
  50 H50           -2.9749    -0.3056    -0.7295 H       
  51 H51           -2.4145    -1.8899    -0.1428 H       
  52 H52           -2.8042    -0.5980     1.0180 H       
  53 H53            4.2900    -5.0215    -5.8951 H       
  54 H54            6.9771    -4.2305    -6.2565 H       
  55 H55            6.8306    -5.0067    -4.6614 H       
  56 H56            6.4182    -5.9161    -6.1349 H       
  57 H57            6.2677     5.8561    -0.2128 H       
  58 H58            6.5099     5.9444    -2.6509 H       
  59 H59            5.3350     4.3122    -4.0720 H       
  60 H60            3.9323     2.5919    -3.0748 H       
@<TRIPOS>BOND
   1    1    2 1
   2    1    6 1
   3    1   32 1
   4    1   33 1
   5    2    3 1
   6    2   20 1
   7    3    4 1
   8    3   34 1
   9    3   35 1
  10    4    5 1
  11    4    7 2
  12    5    6 1
  13    5    9 1
  14    6   36 1
  15    6   37 1
  16    7    8 1
  17    7   12 1
  18    8    9 2
  19    9   10 1
  20   10   11 2
  21   10   27 1
  22   11   25 1
  23   11   38 1
  24   12   13 2
  25   12   15 am
  26   14   15 1
  27   14   21 1
  28   14   16 1
  29   14   39 1
  30   15   40 1
  31   16   17 1
  32   16   18 1
  33   16   19 1
  34   17   41 1
  35   17   42 1
  36   17   43 1
  37   18   44 1
  38   18   45 1
  39   18   46 1
  40   19   47 1
  41   19   48 1
  42   19   49 1
  43   20   50 1
  44   20   51 1
  45   20   52 1
  46   21   22 2
  47   21   23 am
  48   23   24 1
  49   23   53 1
  50   24   54 1
  51   24   55 1
  52   24   56 1
  53   25   26 1
  54   26   27 ar
  55   26   28 ar
  56   27   31 ar
  57   28   29 ar
  58   28   57 1
  59   29   30 ar
  60   29   58 1
  61   30   31 ar
  62   30   59 1
  63   31   60 1

#	End of record

