#	Name: ASD02198796
#	Creating user name:	WinNT
#	Creation time:	15. 06. 2019 20:20

#	Modifying user name:	WinNT
#	Modification time:	15. 06. 2019 20:20

#	Program:	/corina/corina34_cracker 3.40 0067  02.08.2006

@<TRIPOS>MOLECULE
ASD02198796
  50   54    0    0    0
SMALL
NO_CHARGES


@<TRIPOS>ATOM
   1 C1            -0.0433     1.5018    -0.1149 C.2     
   2 C2            -0.0731     0.1622     0.0976 C.2     
   3 N3             1.0714    -0.5395     0.2604 N.pl3   
   4 N4             2.2359    -0.0048     0.2267 N.2     
   5 C5             2.4075     1.2845     0.0281 C.2     
   6 C6             1.2217     2.1358    -0.1604 C.2     
   7 C7             0.9799    -1.9174     0.4767 C.ar    
   8 C8             1.5820    -2.4884     1.5979 C.ar    
   9 C9             1.4909    -3.8522     1.8112 C.ar    
  10 C10            0.7976    -4.6522     0.9050 C.ar    
  11 C11            0.1972    -4.0766    -0.2146 C.ar    
  12 C12            0.2843    -2.7166    -0.4224 C.ar    
  13 C13            3.7645     1.8667    -0.0040 C.2     
  14 N14            4.3069     2.6064    -1.0171 N.pl3   
  15 N15            5.6088     2.9577    -0.6390 N.2     
  16 C16            5.8522     2.4583     0.5465 C.2     
  17 C17            4.7198     1.7714     0.9841 C.2     
  18 C18            3.6742     2.9514    -2.2181 C.ar    
  19 C19            3.8086     4.2345    -2.7319 C.ar    
  20 C20            3.1839     4.5714    -3.9167 C.ar    
  21 C21            2.4251     3.6325    -4.5912 C.ar    
  22 C22            2.2889     2.3541    -4.0820 C.ar    
  23 C23            2.9158     2.0093    -2.9006 C.ar    
  24 O24            1.3248     3.3387    -0.3486 O.2     
  25 C25            0.6986    -6.1145     1.1306 C.ar    
  26 N26            1.2693    -6.6659     2.1952 N.ar    
  27 C27           -0.0006    -6.9189     0.2272 C.ar    
  28 C28           -0.0635    -8.2800     0.4847 C.ar    
  29 C29            0.5704    -8.7593     1.6214 C.ar    
  30 N30            1.2054    -7.9270     2.4251 N.ar    
  31 O31            2.2579    -1.7056     2.4798 O.3     
  32 C32            2.8494    -2.3578     3.6053 C.3     
  33 H33           -0.9546     2.0655    -0.2494 H       
  34 H34           -1.0229    -0.3503     0.1375 H       
  35 H35            1.9567    -4.2963     2.6786 H       
  36 H36           -0.3399    -4.6964    -0.9173 H       
  37 H37           -0.1815    -2.2728    -1.2897 H       
  38 H38            6.7756     2.5642     1.0965 H       
  39 H39            4.6136     1.2520     1.9250 H       
  40 H40            4.4008     4.9683    -2.2054 H       
  41 H41            3.2878     5.5692    -4.3165 H       
  42 H42            1.9375     3.8984    -5.5175 H       
  43 H43            1.6953     1.6231    -4.6109 H       
  44 H44            2.8094     1.0106    -2.5036 H       
  45 H45           -0.4772    -6.4940    -0.6438 H       
  46 H46           -0.5912    -8.9475    -0.1804 H       
  47 H47            0.5404    -9.8140     1.8516 H       
  48 H48            3.5702    -3.0983     3.2587 H       
  49 H49            3.3566    -1.6204     4.2274 H       
  50 H50            2.0724    -2.8523     4.1883 H       
@<TRIPOS>BOND
   1    1    2 2
   2    1    6 1
   3    1   33 1
   4    2    3 1
   5    2   34 1
   6    3    4 1
   7    3    7 1
   8    4    5 2
   9    5    6 1
  10    5   13 1
  11    6   24 2
  12    7    8 ar
  13    7   12 ar
  14    8    9 ar
  15    8   31 1
  16    9   10 ar
  17    9   35 1
  18   10   11 ar
  19   10   25 1
  20   11   12 ar
  21   11   36 1
  22   12   37 1
  23   13   14 1
  24   13   17 2
  25   14   15 1
  26   14   18 1
  27   15   16 2
  28   16   17 1
  29   16   38 1
  30   17   39 1
  31   18   19 ar
  32   18   23 ar
  33   19   20 ar
  34   19   40 1
  35   20   21 ar
  36   20   41 1
  37   21   22 ar
  38   21   42 1
  39   22   23 ar
  40   22   43 1
  41   23   44 1
  42   25   26 ar
  43   25   27 ar
  44   26   30 ar
  45   27   28 ar
  46   27   45 1
  47   28   29 ar
  48   28   46 1
  49   29   30 ar
  50   29   47 1
  51   31   32 1
  52   32   48 1
  53   32   49 1
  54   32   50 1

#	End of record

