#	Name: ASD01916517
#	Creating user name:	WinNT
#	Creation time:	15. 06. 2019 20:07

#	Modifying user name:	WinNT
#	Modification time:	15. 06. 2019 20:07

#	Program:	/corina/corina34_cracker 3.40 0067  02.08.2006

@<TRIPOS>MOLECULE
ASD01916517
  44   47    0    0    0
SMALL
NO_CHARGES


@<TRIPOS>ATOM
   1 C1            -0.0171     1.4102     0.0098 C.ar    
   2 C2             0.0021    -0.0041     0.0020 C.ar    
   3 C3            -1.1924    -0.7259     0.0414 C.ar    
   4 C4            -2.3859    -0.0627     0.0741 C.ar    
   5 C5            -2.4220     1.3394     0.0659 C.ar    
   6 C6            -1.2403     2.0766     0.0357 C.ar    
   7 N7             1.1600     2.0755     0.0021 N.2     
   8 C8             2.3197     1.4676    -0.0397 C.2     
   9 N9             2.4195     0.1194    -0.1574 N.am    
  10 C10            1.3096    -0.6627    -0.0624 C.2     
  11 C11           -3.6827     2.0181     0.0891 C.1     
  12 O12            1.4006    -1.8764    -0.0314 O.2     
  13 C13            3.5359     2.3446     0.1019 C.3     
  14 C14            4.7921     1.6917    -0.4308 C.3     
  15 C15            4.8960     0.2352    -0.0270 C.3     
  16 C16            3.6788    -0.5624    -0.4368 C.3     
  17 C17           -4.7163     2.5745     0.1081 C.1     
  18 C18           -5.9771     3.2532     0.1314 C.ar    
  19 N19           -6.0114     4.5822     0.1235 N.ar    
  20 C20           -7.1505     5.2428     0.1438 C.ar    
  21 C21           -8.3604     4.5730     0.1746 C.ar    
  22 C22           -8.3717     3.1847     0.1838 C.ar    
  23 C23           -7.1625     2.5138     0.1563 C.ar    
  24 Cl24          -1.1607    -2.4616     0.0481 Cl      
  25 C25            4.7905     1.7845    -1.9580 C.3     
  26 C26            6.0100     2.4445     0.1086 C.3     
  27 H27           -3.3090    -0.6223     0.1063 H       
  28 H28           -1.2721     3.1561     0.0316 H       
  29 H29            3.3648     3.2740    -0.4413 H       
  30 H30            3.6807     2.5777     1.1568 H       
  31 H31            5.7781    -0.1997    -0.4970 H       
  32 H32            5.0093     0.1759     1.0555 H       
  33 H33            3.6877    -1.5128     0.0970 H       
  34 H34            3.7372    -0.7646    -1.5062 H       
  35 H35           -7.1398     6.3227     0.1366 H       
  36 H36           -9.2883     5.1254     0.1917 H       
  37 H37           -9.3043     2.6406     0.2080 H       
  38 H38           -7.1347     1.4342     0.1621 H       
  39 H39            4.7643     2.8320    -2.2583 H       
  40 H40            5.6927     1.3162    -2.3514 H       
  41 H41            3.9133     1.2714    -2.3523 H       
  42 H42            6.0083     2.4052     1.1979 H       
  43 H43            6.9209     1.9808    -0.2703 H       
  44 H44            5.9686     3.4837    -0.2176 H       
@<TRIPOS>BOND
   1    1    2 ar
   2    1    7 1
   3    1    6 ar
   4    2    3 ar
   5    2   10 1
   6    3    4 ar
   7    3   24 1
   8    4    5 ar
   9    4   27 1
  10    5    6 ar
  11    5   11 1
  12    6   28 1
  13    7    8 2
  14    8    9 1
  15    8   13 1
  16    9   10 am
  17    9   16 1
  18   10   12 2
  19   11   17 3
  20   13   14 1
  21   13   29 1
  22   13   30 1
  23   14   15 1
  24   14   25 1
  25   14   26 1
  26   15   16 1
  27   15   31 1
  28   15   32 1
  29   16   33 1
  30   16   34 1
  31   17   18 1
  32   18   19 ar
  33   18   23 ar
  34   19   20 ar
  35   20   21 ar
  36   20   35 1
  37   21   22 ar
  38   21   36 1
  39   22   23 ar
  40   22   37 1
  41   23   38 1
  42   25   39 1
  43   25   40 1
  44   25   41 1
  45   26   42 1
  46   26   43 1
  47   26   44 1

#	End of record

