#	Name: ASD04590152
#	Creating user name:	WinNT
#	Creation time:	15. 06. 2019 20:50

#	Modifying user name:	WinNT
#	Modification time:	15. 06. 2019 20:50

#	Program:	/corina/corina34_cracker 3.40 0067  02.08.2006

@<TRIPOS>MOLECULE
ASD04590152
  51   54    0    0    0
SMALL
NO_CHARGES


@<TRIPOS>ATOM
   1 N1            -0.0153     1.2802     0.0091 N.pl3   
   2 N2             0.0021    -0.0041     0.0020 N.2     
   3 C3             1.2455    -0.4440    -0.0122 C.2     
   4 C4             2.0903     0.6961    -0.0142 C.2     
   5 C5             1.2523     1.7667    -0.0004 C.2     
   6 C6             1.6765    -1.8547    -0.0232 C.2     
   7 N7             0.7571    -2.8402    -0.0194 N.am    
   8 O8             2.8611    -2.1284    -0.0356 O.2     
   9 N9             3.4930     0.7146    -0.0268 N.am    
  10 C10            4.1514     1.8906    -0.0268 C.2     
  11 C11            1.1851    -4.2412    -0.0303 C.3     
  12 C12            0.0894    -5.1158     0.5856 C.3     
  13 C13            0.5160    -6.5838     0.5160 C.3     
  14 N14            0.7410    -6.9637    -0.8845 N.3     
  15 C15            1.8214    -6.1695    -1.4831 C.3     
  16 C16            1.4338    -4.6891    -1.4733 C.3     
  17 O17            3.5295     2.9356    -0.0160 O.2     
  18 C18            5.6264     1.9101    -0.0401 C.ar    
  19 C19            6.3441     0.7108    -0.0526 C.ar    
  20 C20            6.3138     3.1309    -0.0460 C.ar    
  21 C21            7.7036     3.1380    -0.0556 C.ar    
  22 C22            8.4009     1.9402    -0.0632 C.ar    
  23 C23            7.7214     0.7335    -0.0647 C.ar    
  24 O24            5.6110     4.2930    -0.0472 O.3     
  25 C25            6.3246     5.4779     0.3228 C.3     
  26 C26            7.6638     5.4863    -0.4266 C.3     
  27 O27            8.3931     4.3119    -0.0541 O.3     
  28 C28            1.0173    -8.4017    -1.0020 C.3     
  29 H29           -0.8184     1.8242     0.0160 H       
  30 H30            1.5405     2.8076     0.0024 H       
  31 H31           -0.1879    -2.6218    -0.0095 H       
  32 H32            3.9890    -0.1189    -0.0354 H       
  33 H33            2.1030    -4.3462     0.5480 H       
  34 H34           -0.0623    -4.8298     1.6264 H       
  35 H35           -0.8392    -4.9800     0.0312 H       
  36 H36            1.4373    -6.7215     1.0822 H       
  37 H37           -0.2682    -7.2104     0.9408 H       
  38 H38            2.7365    -6.3092    -0.9076 H       
  39 H39            1.9853    -6.4952    -2.5103 H       
  40 H40            0.5264    -4.5466    -2.0601 H       
  41 H41            2.2425    -4.0983    -1.9034 H       
  42 H42            5.8193    -0.2331    -0.0524 H       
  43 H43            9.4808     1.9480    -0.0729 H       
  44 H44            8.2741    -0.1943    -0.0707 H       
  45 H45            5.7436     6.3580     0.0471 H       
  46 H46            6.5049     5.4778     1.3977 H       
  47 H47            7.4835     5.4815    -1.5016 H       
  48 H48            8.2327     6.3748    -0.1527 H       
  49 H49            0.1682    -8.9674    -0.6185 H       
  50 H50            1.1801    -8.6560    -2.0494 H       
  51 H51            1.9087    -8.6487    -0.4254 H       
@<TRIPOS>BOND
   1    1    2 1
   2    1    5 1
   3    1   29 1
   4    2    3 2
   5    3    4 1
   6    3    6 1
   7    4    5 2
   8    4    9 1
   9    5   30 1
  10    6    7 am
  11    6    8 2
  12    7   11 1
  13    7   31 1
  14    9   10 am
  15    9   32 1
  16   10   17 2
  17   10   18 1
  18   11   12 1
  19   11   16 1
  20   11   33 1
  21   12   13 1
  22   12   34 1
  23   12   35 1
  24   13   14 1
  25   13   36 1
  26   13   37 1
  27   14   15 1
  28   14   28 1
  29   15   16 1
  30   15   38 1
  31   15   39 1
  32   16   40 1
  33   16   41 1
  34   18   19 ar
  35   18   20 ar
  36   19   23 ar
  37   19   42 1
  38   20   21 ar
  39   20   24 1
  40   21   22 ar
  41   21   27 1
  42   22   23 ar
  43   22   43 1
  44   23   44 1
  45   24   25 1
  46   25   26 1
  47   25   45 1
  48   25   46 1
  49   26   27 1
  50   26   47 1
  51   26   48 1
  52   28   49 1
  53   28   50 1
  54   28   51 1

#	End of record

