#	Name: ASD00450064
#	Creating user name:	WinNT
#	Creation time:	15. 06. 2019 18:36

#	Modifying user name:	WinNT
#	Modification time:	15. 06. 2019 18:36

#	Program:	/corina/corina34_cracker 3.40 0067  02.08.2006

@<TRIPOS>MOLECULE
ASD00450064
  52   54    0    0    0
SMALL
NO_CHARGES


@<TRIPOS>ATOM
   1 C1             0.5435     1.6013     0.0293 C.ar    
   2 C2             0.2361     0.2461     0.2256 C.ar    
   3 C3             1.2485    -0.6550     0.5079 C.ar    
   4 C4             2.5624    -0.2238     0.5976 C.ar    
   5 C5             2.8779     1.1107     0.4064 C.ar    
   6 C6             1.8790     2.0297     0.1217 C.ar    
   7 C7            -0.5235     2.5653    -0.2770 C.2     
   8 O8            -1.0983     3.1436     0.6259 O.2     
   9 N9            -0.8647     2.8084    -1.5580 N.am    
  10 N10            2.1971     3.3683    -0.0709 N.pl3   
  11 C11            3.3718     3.8940     0.4775 C.ar    
  12 C12            3.9442     5.0385    -0.0676 C.ar    
  13 C13            3.9659     3.2779     1.5708 C.ar    
  14 C14            5.1255     3.7994     2.1106 C.ar    
  15 C15            5.6961     4.9347     1.5637 C.ar    
  16 C16            5.1051     5.5552     0.4777 C.ar    
  17 F17            3.5424    -1.1117     0.8741 F       
  18 F18            3.3671     5.6441    -1.1285 F       
  19 I19            7.4546     5.7211     2.3874 I       
  20 O20           -1.0489    -0.1795     0.1395 O.3     
  21 C21           -1.2897    -1.5110     0.2643 C.ar    
  22 C22           -1.3000    -2.0993     1.5196 C.ar    
  23 C23           -1.5462    -3.4596     1.6435 C.ar    
  24 C24           -1.5312    -2.2818    -0.8644 C.ar    
  25 C25           -1.7767    -3.6362    -0.7391 C.ar    
  26 C26           -1.7816    -4.2273     0.5092 C.ar    
  27 N27           -1.5569    -4.0561     2.9063 N.am    
  28 S28           -2.8360    -3.8079     3.9285 S.o2    
  29 O29           -2.4834    -4.5155     5.1093 O.2     
  30 O30           -3.0045    -2.3970     3.9427 O.2     
  31 C31           -4.2382    -4.6082     3.1016 C.3     
  32 C32           -5.5177    -4.3455     3.8982 C.3     
  33 N33           -6.6533    -4.9936     3.2286 N.3     
  34 H34            1.0133    -1.6982     0.6592 H       
  35 H35            3.9049     1.4370     0.4787 H       
  36 H36           -0.4064     2.3474    -2.2778 H       
  37 H37           -1.5687     3.4445    -1.7600 H       
  38 H38            1.6046     3.9383    -0.5856 H       
  39 H39            3.5214     2.3916     1.9991 H       
  40 H40            5.5873     3.3202     2.9612 H       
  41 H41            5.5507     6.4438     0.0555 H       
  42 H42           -1.1164    -1.5004     2.3994 H       
  43 H43           -1.5276    -1.8226    -1.8419 H       
  44 H44           -1.9646    -4.2335    -1.6190 H       
  45 H45           -1.9734    -5.2859     0.6043 H       
  46 H46           -0.8152    -4.6158     3.1847 H       
  47 H47           -4.3467    -4.2024     2.0957 H       
  48 H48           -4.0607    -5.6821     3.0429 H       
  49 H49           -5.4093    -4.7513     4.9040 H       
  50 H50           -5.6952    -3.2717     3.9569 H       
  51 H51           -6.4844    -5.9806     3.1041 H       
  52 H52           -7.5109    -4.8347     3.7358 H       
@<TRIPOS>BOND
   1    1    2 ar
   2    1    6 ar
   3    1    7 1
   4    2    3 ar
   5    2   20 1
   6    3    4 ar
   7    3   34 1
   8    4    5 ar
   9    4   17 1
  10    5    6 ar
  11    5   35 1
  12    6   10 1
  13    7    8 2
  14    7    9 am
  15    9   36 1
  16    9   37 1
  17   10   11 1
  18   10   38 1
  19   11   13 ar
  20   11   12 ar
  21   12   16 ar
  22   12   18 1
  23   13   14 ar
  24   13   39 1
  25   14   15 ar
  26   14   40 1
  27   15   16 ar
  28   15   19 1
  29   16   41 1
  30   20   21 1
  31   21   22 ar
  32   21   24 ar
  33   22   23 ar
  34   22   42 1
  35   23   26 ar
  36   23   27 1
  37   24   25 ar
  38   24   43 1
  39   25   26 ar
  40   25   44 1
  41   26   45 1
  42   27   28 am
  43   27   46 1
  44   28   29 2
  45   28   30 2
  46   28   31 1
  47   31   32 1
  48   31   47 1
  49   31   48 1
  50   32   33 1
  51   32   49 1
  52   32   50 1
  53   33   51 1
  54   33   52 1

#	End of record

