#	Name: ASD08150549
#	Creating user name:	WinNT
#	Creation time:	15. 06. 2019 21:16

#	Modifying user name:	WinNT
#	Modification time:	15. 06. 2019 21:16

#	Program:	/corina/corina34_cracker 3.40 0067  02.08.2006

@<TRIPOS>MOLECULE
ASD08150549
  30   32    0    0    0
SMALL
NO_CHARGES


@<TRIPOS>ATOM
   1 N1            -0.0155     1.2940     0.0092 N.2     
   2 C2             0.0021    -0.0041     0.0020 C.2     
   3 N3             1.1491    -0.7362    -0.0124 N.am    
   4 C4             2.3563    -0.1244    -0.0206 C.2     
   5 C5             2.3704     1.3456    -0.0133 C.ar    
   6 C6             3.5605     2.0706    -0.0204 C.ar    
   7 C7             3.5161     3.4495    -0.0126 C.ar    
   8 C8             2.2958     4.1168     0.0022 C.ar    
   9 C9             1.1103     3.4175     0.0098 C.ar    
  10 C10            1.1299     2.0211     0.0021 C.ar    
  11 O11            3.3904    -0.7665    -0.0332 O.2     
  12 F12            4.6669     4.1572    -0.0189 F       
  13 C13            1.0797    -2.1354    -0.0184 C.ar    
  14 C14            1.0567    -2.8367     1.1814 C.ar    
  15 C15            0.9877    -4.2169     1.1715 C.ar    
  16 C16            0.9421    -4.8996    -0.0304 C.ar    
  17 C17            0.9648    -4.2042    -1.2252 C.ar    
  18 C18            1.0279    -2.8241    -1.2224 C.ar    
  19 Cl19           1.1151    -1.9801     2.6902 Cl      
  20 C20           -1.3145    -0.7373     0.0106 C.3     
  21 Cl21          -2.6665     0.4553     0.0300 Cl      
  22 H22            4.5104     1.5569    -0.0315 H       
  23 H23            2.2782     5.1966     0.0081 H       
  24 H24            0.1688     3.9465     0.0220 H       
  25 H25            0.9698    -4.7629     2.1031 H       
  26 H26            0.8889    -5.9782    -0.0357 H       
  27 H27            0.9291    -4.7405    -2.1620 H       
  28 H28            1.0412    -2.2818    -2.1563 H       
  29 H29           -1.3904    -1.3582    -0.8820 H       
  30 H30           -1.3734    -1.3678     0.8979 H       
@<TRIPOS>BOND
   1    1    2 2
   2    1   10 1
   3    2    3 1
   4    2   20 1
   5    3    4 am
   6    3   13 1
   7    4    5 1
   8    4   11 2
   9    5    6 ar
  10    5   10 ar
  11    6    7 ar
  12    6   22 1
  13    7    8 ar
  14    7   12 1
  15    8    9 ar
  16    8   23 1
  17    9   10 ar
  18    9   24 1
  19   13   14 ar
  20   13   18 ar
  21   14   15 ar
  22   14   19 1
  23   15   16 ar
  24   15   25 1
  25   16   17 ar
  26   16   26 1
  27   17   18 ar
  28   17   27 1
  29   18   28 1
  30   20   21 1
  31   20   29 1
  32   20   30 1

#	End of record

