#	Name: ASD01810893
#	Creating user name:	WinNT
#	Creation time:	15. 06. 2019 19:25

#	Modifying user name:	WinNT
#	Modification time:	15. 06. 2019 19:25

#	Program:	/corina/corina34_cracker 3.40 0067  02.08.2006

@<TRIPOS>MOLECULE
ASD01810893
  62   67    0    0    0
SMALL
NO_CHARGES


@<TRIPOS>ATOM
   1 C1            -0.0163     1.3503     0.0095 C.ar    
   2 C2             0.0021    -0.0041     0.0020 C.ar    
   3 C3             1.2131    -0.7153    -0.0130 C.ar    
   4 C4             2.4403    -0.0265    -0.0211 C.ar    
   5 C5             2.4296     1.4349    -0.0140 C.ar    
   6 N6             3.5586     2.1387    -0.0207 N.ar    
   7 C7             3.5458     3.4516    -0.0139 C.ar    
   8 C8             2.3532     4.1681     0.0010 C.ar    
   9 C9             1.1583     3.5034     0.0084 C.ar    
  10 C10            1.1789     2.0975     0.0021 C.ar    
  11 C11           -1.3393     2.0718     0.0196 C.3     
  12 C12           -1.7277     2.4287    -1.3921 C.ar    
  13 C13           -2.4802     1.5473    -2.1557 C.ar    
  14 C14           -2.8164     1.9129    -3.4473 C.ar    
  15 C15           -2.3902     3.1469    -3.9343 C.ar    
  16 N16           -1.6716     3.9609    -3.1717 N.ar    
  17 C17           -1.3428     3.6393    -1.9366 C.ar    
  18 C18           -2.7422     3.5536    -5.3166 C.2     
  19 C19           -2.3137     4.6784    -5.9608 C.2     
  20 C20            1.2424    -2.1816    -0.0201 C.2     
  21 N21            2.4369    -2.8085    -0.0341 N.am    
  22 C22            3.6083    -2.1118    -0.0413 C.2     
  23 C23            3.6433    -0.7662    -0.0352 C.2     
  24 O24            0.2061    -2.8224    -0.0131 O.2     
  25 C25            2.4759    -4.2730    -0.0414 C.3     
  26 C26            3.2219    -4.7694     1.1987 C.3     
  27 C27            3.2626    -6.2989     1.1911 C.3     
  28 C28            3.9856    -6.7836    -0.0671 C.3     
  29 C29            3.2395    -6.2871    -1.3072 C.3     
  30 C30            3.1988    -4.7577    -1.2997 C.3     
  31 O31            2.5467    -4.3167     2.3739 O.3     
  32 C32           -3.5751     2.8463    -6.2064 C.2     
  33 N33           -3.6417     3.5218    -7.3227 N.2     
  34 N34           -2.8586     4.6750    -7.1928 N.pl3   
  35 C35           -2.6659     5.7020    -8.2196 C.3     
  36 H36           -0.9315    -0.5470     0.0081 H       
  37 H37            4.4831     3.9880    -0.0196 H       
  38 H38            2.3713     5.2479     0.0070 H       
  39 H39            0.2233     4.0439     0.0203 H       
  40 H40           -2.1022     1.4257     0.4540 H       
  41 H41           -1.2525     2.9816     0.6136 H       
  42 H42           -2.7960     0.5971    -1.7510 H       
  43 H43           -3.4007     1.2510    -4.0693 H       
  44 H44           -0.7606     4.3292    -1.3436 H       
  45 H45           -1.6570     5.4342    -5.5560 H       
  46 H46            4.5400    -2.6579    -0.0521 H       
  47 H47            4.5928    -0.2514    -0.0416 H       
  48 H48            1.4583    -4.6635    -0.0338 H       
  49 H49            4.2395    -4.3789     1.1911 H       
  50 H50            3.7941    -6.6526     2.0746 H       
  51 H51            2.2450    -6.6894     1.1987 H       
  52 H52            5.0032    -6.3930    -0.0747 H       
  53 H53            4.0145    -7.8732    -0.0725 H       
  54 H54            3.7545    -6.6325    -2.2036 H       
  55 H55            2.2219    -6.6777    -1.2996 H       
  56 H56            2.6673    -4.4040    -2.1831 H       
  57 H57            4.2164    -4.3671    -1.3072 H       
  58 H58            2.9654    -4.5951     3.1999 H       
  59 H59           -4.0714     1.9093    -6.0015 H       
  60 H60           -3.4331     6.4692    -8.1147 H       
  61 H61           -1.6812     6.1543    -8.1009 H       
  62 H62           -2.7399     5.2468    -9.2072 H       
@<TRIPOS>BOND
   1    1    2 ar
   2    1   10 ar
   3    1   11 1
   4    2    3 ar
   5    2   36 1
   6    3    4 ar
   7    3   20 1
   8    4    5 ar
   9    4   23 1
  10    5    6 ar
  11    5   10 ar
  12    6    7 ar
  13    7    8 ar
  14    7   37 1
  15    8    9 ar
  16    8   38 1
  17    9   10 ar
  18    9   39 1
  19   11   12 1
  20   11   40 1
  21   11   41 1
  22   12   13 ar
  23   12   17 ar
  24   13   14 ar
  25   13   42 1
  26   14   15 ar
  27   14   43 1
  28   15   16 ar
  29   15   18 1
  30   16   17 ar
  31   17   44 1
  32   18   32 1
  33   18   19 2
  34   19   34 1
  35   19   45 1
  36   20   21 am
  37   20   24 2
  38   21   22 1
  39   21   25 1
  40   22   23 2
  41   22   46 1
  42   23   47 1
  43   25   26 1
  44   25   30 1
  45   25   48 1
  46   26   27 1
  47   26   31 1
  48   26   49 1
  49   27   28 1
  50   27   50 1
  51   27   51 1
  52   28   29 1
  53   28   52 1
  54   28   53 1
  55   29   30 1
  56   29   54 1
  57   29   55 1
  58   30   56 1
  59   30   57 1
  60   31   58 1
  61   32   33 2
  62   32   59 1
  63   33   34 1
  64   34   35 1
  65   35   60 1
  66   35   61 1
  67   35   62 1

#	End of record

