#	Name: ASD01815326
#	Creating user name:	WinNT
#	Creation time:	15. 06. 2019 19:33

#	Modifying user name:	WinNT
#	Modification time:	15. 06. 2019 19:33

#	Program:	/corina/corina34_cracker 3.40 0067  02.08.2006

@<TRIPOS>MOLECULE
ASD01815326
  45   48    0    0    0
SMALL
NO_CHARGES


@<TRIPOS>ATOM
   1 C1            -0.0954     1.1835     0.1752 C.ar    
   2 C2            -0.0490    -0.2002     0.1017 C.ar    
   3 C3             1.1601    -0.8647     0.0689 C.ar    
   4 C4             2.3525    -0.1443     0.1092 C.ar    
   5 C5             2.3038     1.2583     0.1832 C.ar    
   6 C6             1.0727     1.9180     0.2163 C.ar    
   7 N7             3.5668    -0.7972     0.0775 N.pl3   
   8 C8             4.7389    -0.1509     0.1143 C.2     
   9 C9             4.8178     1.2252     0.1871 C.2     
  10 C10            3.5717     2.0081     0.2252 C.2     
  11 O11            3.5880     3.2250     0.2895 O.2     
  12 C12            6.1240     1.8976     0.2260 C.2     
  13 O13            7.1467     1.2411     0.1941 O.2     
  14 O14            6.1881     3.2422     0.2971 O.3     
  15 F15            1.0257     3.2663     0.2869 F       
  16 F16            1.1879    -2.2136    -0.0018 F       
  17 C17            3.5747    -2.2601     0.0008 C.3     
  18 C18            3.4350    -2.6885    -1.4373 C.ar    
  19 C19            4.5672    -2.9700    -2.1776 C.ar    
  20 N20            2.2340    -2.7948    -1.9703 N.ar    
  21 C21            2.0638    -3.1684    -3.2319 C.ar    
  22 C22            3.1625    -3.4622    -4.0378 C.ar    
  23 C23            4.4343    -3.3643    -3.5022 C.ar    
  24 C24            0.6936    -3.2748    -3.7890 C.2     
  25 H25            5.3045    -3.5852    -4.1024 H       
  26 C26           -0.4010    -3.8747    -3.2314 C.2     
  27 C27            0.2059    -2.7709    -5.0280 C.2     
  28 N28           -1.0496    -3.1028    -5.0870 N.2     
  29 O29           -1.4028    -3.7123    -4.1052 O.3     
  30 C30            0.9884    -2.0054    -6.0638 C.3     
  31 C31           -0.4671    -4.5778    -1.9001 C.3     
  32 H32           -1.0496     1.6891     0.1960 H       
  33 H33           -0.9693    -0.7644     0.0702 H       
  34 H34            5.6529    -0.7255     0.0864 H       
  35 H35            7.0696     3.6391     0.3204 H       
  36 H36            4.5136    -2.6400     0.4035 H       
  37 H37            2.7426    -2.6589     0.5811 H       
  38 H38            5.5464    -2.8837    -1.7303 H       
  39 H39            3.0227    -3.7666    -5.0645 H       
  40 H40            1.4325    -2.7038    -6.7731 H       
  41 H41            0.3217    -1.3247    -6.5931 H       
  42 H42            1.7771    -1.4340    -5.5742 H       
  43 H43           -0.6482    -3.8470    -1.1119 H       
  44 H44           -1.2780    -5.3060    -1.9137 H       
  45 H45            0.4771    -5.0888    -1.7118 H       
@<TRIPOS>BOND
   1    1    2 ar
   2    1    6 ar
   3    1   32 1
   4    2    3 ar
   5    2   33 1
   6    3    4 ar
   7    3   16 1
   8    4    5 ar
   9    4    7 1
  10    5    6 ar
  11    5   10 1
  12    6   15 1
  13    7    8 1
  14    7   17 1
  15    8    9 2
  16    8   34 1
  17    9   10 1
  18    9   12 1
  19   10   11 2
  20   12   13 2
  21   12   14 1
  22   14   35 1
  23   17   18 1
  24   17   36 1
  25   17   37 1
  26   18   19 ar
  27   18   20 ar
  28   19   23 ar
  29   19   38 1
  30   20   21 ar
  31   21   22 ar
  32   21   24 1
  33   22   23 ar
  34   22   39 1
  35   23   25 1
  36   24   27 1
  37   24   26 2
  38   26   31 1
  39   26   29 1
  40   27   28 2
  41   27   30 1
  42   28   29 1
  43   30   40 1
  44   30   41 1
  45   30   42 1
  46   31   43 1
  47   31   44 1
  48   31   45 1

#	End of record

