#	Name: ASD00510013
#	Creating user name:	WinNT
#	Creation time:	15. 06. 2019 18:36

#	Modifying user name:	WinNT
#	Modification time:	15. 06. 2019 18:36

#	Program:	/corina/corina34_cracker 3.40 0067  02.08.2006

@<TRIPOS>MOLECULE
ASD00510013
  25   26    0    0    0
SMALL
NO_CHARGES


@<TRIPOS>ATOM
   1 C1            -0.0170     1.4002     0.0097 C.ar    
   2 C2             0.0021    -0.0041     0.0020 C.ar    
   3 C3             1.1938    -0.6618    -0.0128 C.ar    
   4 C4             2.3991     0.0381    -0.0205 C.ar    
   5 C5             2.4192     1.3988    -0.0130 C.ar    
   6 C6             1.2082     2.1128     0.0019 C.ar    
   7 C7             1.1928     3.5178     0.0084 C.ar    
   8 C8             0.0065     4.1857     0.0228 C.ar    
   9 C9            -1.2066     3.4966     0.0307 C.ar    
  10 C10           -1.2322     2.1145     0.0193 C.ar    
  11 N11           -2.4516     1.4318     0.0219 N.pl3   
  12 O12           -2.3760     4.1918     0.0451 O.3     
  13 S13            2.7091     4.4154    -0.0013 S.o2    
  14 O14            2.9886     4.7456     1.3522 O.2     
  15 O15            3.6054     3.6801    -0.8230 O.2     
  16 O16            2.4488     5.7316    -0.7198 O.3     
  17 H17           -0.9242    -0.5594     0.0082 H       
  18 H18            1.2056    -1.7417    -0.0184 H       
  19 H19            3.3310    -0.5075    -0.0323 H       
  20 H20            3.3609     1.9277    -0.0191 H       
  21 H21            0.0045     5.2657     0.0285 H       
  22 H22           -2.4643     0.4619     0.0171 H       
  23 H23           -3.2851     1.9277     0.0285 H       
  24 H24           -2.7224     4.3971    -0.8341 H       
  25 H25            3.2242     6.3061    -0.7814 H       
@<TRIPOS>BOND
   1    1    2 ar
   2    1    6 ar
   3    1   10 ar
   4    2    3 ar
   5    2   17 1
   6    3    4 ar
   7    3   18 1
   8    4    5 ar
   9    4   19 1
  10    5    6 ar
  11    5   20 1
  12    6    7 ar
  13    7    8 ar
  14    7   13 1
  15    8    9 ar
  16    8   21 1
  17    9   10 ar
  18    9   12 1
  19   10   11 1
  20   11   22 1
  21   11   23 1
  22   12   24 1
  23   13   14 2
  24   13   15 2
  25   13   16 1
  26   16   25 1

#	End of record

