#	Name: ASD01913354
#	Creating user name:	WinNT
#	Creation time:	15. 06. 2019 20:01

#	Modifying user name:	WinNT
#	Modification time:	15. 06. 2019 20:01

#	Program:	/corina/corina34_cracker 3.40 0067  02.08.2006

@<TRIPOS>MOLECULE
ASD01913354
  40   43    0    0    0
SMALL
NO_CHARGES


@<TRIPOS>ATOM
   1 C1            -0.0166     1.3765     0.0096 C.2     
   2 C2             0.0021    -0.0041     0.0020 C.2     
   3 C3             1.2499    -0.6727    -0.0135 C.2     
   4 N4             2.3635     0.0159    -0.0204 N.2     
   5 C5             2.3514     1.3567    -0.0131 C.2     
   6 N6             1.1685     2.0507     0.0019 N.pl3   
   7 C7             3.3711     2.2994    -0.0178 C.2     
   8 C8             2.7831     3.5557    -0.0054 C.2     
   9 N9             1.4768     3.4160     0.0063 N.2     
  10 C10            3.5231     4.8685    -0.0050 C.3     
  11 C11           -1.2215    -0.7480     0.0102 C.1     
  12 C12           -2.2246    -1.3579     0.0169 C.1     
  13 C13           -3.4482    -2.1018     0.0250 C.ar    
  14 C14           -3.4205    -3.4989     0.0173 C.ar    
  15 C15           -4.6030    -4.2087     0.0257 C.ar    
  16 C16           -5.8500    -2.1574     0.0549 C.ar    
  17 C17           -4.6756    -1.4342     0.0466 C.ar    
  18 C18           -5.8148    -3.5407     0.0418 C.ar    
  19 C19            3.8975     5.2452     1.4318 C.3     
  20 C20            4.7164     6.5386     1.4151 C.3     
  21 O21            5.8758     6.3563     0.5998 O.3     
  22 C22            5.5866     6.0488    -0.7655 C.3     
  23 C23            4.8027     4.7357    -0.8363 C.3     
  24 H24           -0.9539     1.9131     0.0170 H       
  25 H25            1.2833    -1.7522    -0.0192 H       
  26 H26            4.4309     2.0919    -0.0290 H       
  27 H27            2.8883     5.6450    -0.4318 H       
  28 H28           -2.4755    -4.0216     0.0043 H       
  29 H29           -4.5832    -5.2885     0.0193 H       
  30 H30           -6.7994    -1.6428     0.0716 H       
  31 H31           -4.7046    -0.3546     0.0572 H       
  32 H32           -6.7376    -4.1017     0.0483 H       
  33 H33            2.9904     5.3959     2.0170 H       
  34 H34            4.4897     4.4449     1.8756 H       
  35 H35            4.1096     7.3477     1.0084 H       
  36 H36            5.0220     6.7885     2.4310 H       
  37 H37            4.9913     6.8515    -1.2006 H       
  38 H38            6.5192     5.9459    -1.3203 H       
  39 H39            5.4132     3.9251    -0.4384 H       
  40 H40            4.5430     4.5221    -1.8732 H       
@<TRIPOS>BOND
   1    1    2 2
   2    1    6 1
   3    1   24 1
   4    2    3 1
   5    2   11 1
   6    3    4 2
   7    3   25 1
   8    4    5 1
   9    5    6 1
  10    5    7 2
  11    6    9 1
  12    7    8 1
  13    7   26 1
  14    8    9 2
  15    8   10 1
  16   10   19 1
  17   10   23 1
  18   10   27 1
  19   11   12 3
  20   12   13 1
  21   13   14 ar
  22   13   17 ar
  23   14   15 ar
  24   14   28 1
  25   15   18 ar
  26   15   29 1
  27   16   17 ar
  28   16   18 ar
  29   16   30 1
  30   17   31 1
  31   18   32 1
  32   19   20 1
  33   19   33 1
  34   19   34 1
  35   20   21 1
  36   20   35 1
  37   20   36 1
  38   21   22 1
  39   22   23 1
  40   22   37 1
  41   22   38 1
  42   23   39 1
  43   23   40 1

#	End of record

