#	Name: ASD03330728
#	Creating user name:	WinNT
#	Creation time:	15. 06. 2019 20:37

#	Modifying user name:	WinNT
#	Modification time:	15. 06. 2019 20:37

#	Program:	/corina/corina34_cracker 3.40 0067  02.08.2006

@<TRIPOS>MOLECULE
ASD03330728
  73   76    0    0    0
SMALL
NO_CHARGES


@<TRIPOS>ATOM
   1 C1            -0.0021     1.3623    -0.1157 C.2     
   2 N2             0.0115     0.0107    -0.2043 N.pl3   
   3 C3             1.2713     1.7746     0.1255 C.2     
   4 N4             2.0595     0.6782     0.1412 N.2     
   5 C5             1.3177    -0.3817    -0.0688 C.2     
   6 C6             1.8101    -1.7748    -0.1460 C.ar    
   7 C7             1.7114     3.1659     0.3317 C.2     
   8 O8             0.9011     4.0720     0.2930 O.2     
   9 C9             3.4492     4.8172     0.7679 C.3     
  10 N10            3.0117     3.4341     0.5630 N.am    
  11 C11            3.2604     5.1994     2.2373 C.3     
  12 C12            4.0926     4.2654     3.1182 C.3     
  13 C13            3.7173     6.6438     2.4513 C.3     
  14 C14            4.9049     4.9435     0.3990 C.2     
  15 N15            5.4489     5.8972    -0.3179 N.2     
  16 C16           -1.1248    -0.9018    -0.3767 C.3     
  17 C17           -2.2549    -0.2211    -1.1491 C.3     
  18 C18           -3.1354     0.5872    -0.1835 C.3     
  19 N19           -2.3289     1.6169     0.4524 N.am    
  20 C20           -1.2238     2.2216    -0.3017 C.3     
  21 C21            1.7825     5.0712     2.6118 C.3     
  22 C22           -2.5921     2.0102     1.7144 C.2     
  23 C23            0.9900    -2.8306     0.2528 C.ar    
  24 C24            3.0942    -2.0384    -0.6234 C.ar    
  25 C25            3.5474    -3.3398    -0.6930 C.ar    
  26 C26            2.7314    -4.3820    -0.2906 C.ar    
  27 C27            1.4550    -4.1275     0.1783 C.ar    
  28 O28           -3.5092     1.5037     2.3298 O.2     
  29 O29           -1.8388     2.9644     2.2931 O.3     
  30 C30           -2.1797     3.3382     3.6541 C.3     
  31 C31           -2.0623     2.1137     4.5639 C.3     
  32 C32           -1.2211     4.4276     4.1390 C.3     
  33 C33           -3.6148     3.8672     3.6935 C.3     
  34 C34            6.7583     5.5972    -0.3855 C.2     
  35 N35            6.9403     4.4968     0.2813 N.2     
  36 O36            5.8890     4.1080     0.7449 O.3     
  37 C37            7.8193     6.3911    -1.1032 C.3     
  38 H38            2.8563     5.4825     0.1403 H       
  39 H39            3.6580     2.7114     0.5938 H       
  40 H40            5.1455     4.3568     2.8514 H       
  41 H41            3.9581     4.5378     4.1650 H       
  42 H42            3.7672     3.2364     2.9658 H       
  43 H43            3.1244     7.3092     1.8237 H       
  44 H44            3.5828     6.9161     3.4981 H       
  45 H45            4.7702     6.7352     2.1845 H       
  46 H46           -0.7961    -1.7843    -0.9255 H       
  47 H47           -1.4925    -1.2059     0.6032 H       
  48 H48           -1.8302     0.4477    -1.8978 H       
  49 H49           -2.8621    -0.9785    -1.6449 H       
  50 H50           -3.9502     1.0533    -0.7374 H       
  51 H51           -3.5448    -0.0766     0.5780 H       
  52 H52           -1.0279     3.2257     0.0745 H       
  53 H53           -1.4828     2.2686    -1.3595 H       
  54 H54            1.4570     4.0421     2.4593 H       
  55 H55            1.6480     5.3435     3.6586 H       
  56 H56            1.1896     5.7365     1.9842 H       
  57 H57           -0.0065    -2.6332     0.6194 H       
  58 H58            3.7320    -1.2257    -0.9382 H       
  59 H59            4.5411    -3.5452    -1.0627 H       
  60 H60            3.0907    -5.3989    -0.3473 H       
  61 H61            0.8229    -4.9454     0.4913 H       
  62 H62           -1.0399     1.7369     4.5358 H       
  63 H63           -2.3182     2.3943     5.5856 H       
  64 H64           -2.7452     1.3376     4.2184 H       
  65 H65           -1.3047     5.3000     3.4909 H       
  66 H66           -1.4770     4.7082     5.1607 H       
  67 H67           -0.1987     4.0508     4.1110 H       
  68 H68           -4.2977     3.0910     3.3480 H       
  69 H69           -3.8707     4.1478     4.7152 H       
  70 H70           -3.6984     4.7395     3.0453 H       
  71 H71            8.2442     7.1285    -0.4221 H       
  72 H72            8.6053     5.7191    -1.4475 H       
  73 H73            7.3757     6.9001    -1.9589 H       
@<TRIPOS>BOND
   1    1    2 1
   2    1    3 2
   3    1   20 1
   4    2   16 1
   5    2    5 1
   6    3    4 1
   7    3    7 1
   8    4    5 2
   9    5    6 1
  10    6   24 ar
  11    6   23 ar
  12    7    8 2
  13    7   10 am
  14    9   10 1
  15    9   11 1
  16    9   14 1
  17    9   38 1
  18   10   39 1
  19   11   12 1
  20   11   13 1
  21   11   21 1
  22   12   40 1
  23   12   41 1
  24   12   42 1
  25   13   43 1
  26   13   44 1
  27   13   45 1
  28   14   15 2
  29   14   36 1
  30   15   34 1
  31   16   17 1
  32   16   46 1
  33   16   47 1
  34   17   18 1
  35   17   48 1
  36   17   49 1
  37   18   19 1
  38   18   50 1
  39   18   51 1
  40   19   20 1
  41   19   22 am
  42   20   52 1
  43   20   53 1
  44   21   54 1
  45   21   55 1
  46   21   56 1
  47   22   28 2
  48   22   29 1
  49   23   27 ar
  50   23   57 1
  51   24   25 ar
  52   24   58 1
  53   25   26 ar
  54   25   59 1
  55   26   27 ar
  56   26   60 1
  57   27   61 1
  58   29   30 1
  59   30   31 1
  60   30   32 1
  61   30   33 1
  62   31   62 1
  63   31   63 1
  64   31   64 1
  65   32   65 1
  66   32   66 1
  67   32   67 1
  68   33   68 1
  69   33   69 1
  70   33   70 1
  71   34   35 2
  72   34   37 1
  73   35   36 1
  74   37   71 1
  75   37   72 1
  76   37   73 1

#	End of record

