#	Name: ASD00069392
#	Creating user name:	WinNT
#	Creation time:	15. 06. 2019 18:29

#	Modifying user name:	WinNT
#	Modification time:	15. 06. 2019 18:29

#	Program:	/corina/corina34_cracker 3.40 0067  02.08.2006

@<TRIPOS>MOLECULE
ASD00069392
  47   48    0    0    0
SMALL
NO_CHARGES


@<TRIPOS>ATOM
   1 C1            -0.0168     1.3912     0.0097 C.ar    
   2 C2             0.0021    -0.0041     0.0020 C.ar    
   3 N3             1.1731    -0.6338    -0.0125 N.ar    
   4 C4             2.3073     0.0500    -0.0197 C.ar    
   5 N5             2.3207     1.3748    -0.0127 N.ar    
   6 C6             1.1900     2.0673     0.0018 C.ar    
   7 Cl7            1.2237     3.8029     0.0102 Cl      
   8 N8            -1.1823    -0.7230     0.0099 N.3     
   9 C9            -2.0407    -0.3354    -1.1167 C.3     
  10 C10           -0.9208    -2.1680     0.0057 C.3     
  11 C11           -2.2406    -2.9269     0.1613 C.3     
  12 C12           -3.1765    -2.5553    -0.9921 C.3     
  13 C13           -3.3939    -1.0396    -0.9946 C.3     
  14 N14            3.5088    -0.6366    -0.0344 N.pl3   
  15 C15            4.7742     0.1015    -0.0425 C.3     
  16 N16           -1.9816    -4.3686     0.1360 N.am    
  17 O17           -2.6017    -6.5430     0.7116 O.3     
  18 C18           -3.5683    -7.3982     1.3770 C.3     
  19 C19           -4.9421    -7.2158     0.7287 C.3     
  20 C20           -3.1323    -8.8589     1.2459 C.3     
  21 C21           -3.6489    -7.0210     2.8576 C.3     
  22 C22           -2.8397    -5.2181     0.7349 C.2     
  23 O23           -3.8281    -4.7881     1.2959 O.2     
  24 H24           -0.9523     1.9309     0.0171 H       
  25 H25           -2.1907     0.7442    -1.1044 H       
  26 H26           -1.5638    -0.6249    -2.0531 H       
  27 H27           -0.4492    -2.4489    -0.9359 H       
  28 H28           -0.2575    -2.4194     0.8332 H       
  29 H29           -2.7062    -2.6568     1.1092 H       
  30 H30           -2.7284    -2.8606    -1.9377 H       
  31 H31           -4.1337    -3.0603    -0.8618 H       
  32 H32           -3.8776    -0.7398    -0.0649 H       
  33 H33           -4.0252    -0.7639    -1.8393 H       
  34 H34            3.5130    -1.6066    -0.0393 H       
  35 H35            4.8375     0.7239     0.8501 H       
  36 H36            5.6058    -0.6031    -0.0538 H       
  37 H37            4.8209     0.7329    -0.9298 H       
  38 H38           -1.1926    -4.7119    -0.3119 H       
  39 H39           -4.8846    -7.4846    -0.3261 H       
  40 H40           -5.6677    -7.8578     1.2282 H       
  41 H41           -5.2526    -6.1752     0.8221 H       
  42 H42           -2.1536    -8.9888     1.7078 H       
  43 H43           -3.8579    -9.5008     1.7454 H       
  44 H44           -3.0749    -9.1276     0.1911 H       
  45 H45           -3.9595    -5.9803     2.9510 H       
  46 H46           -4.3745    -7.6629     3.3571 H       
  47 H47           -2.6702    -7.1509     3.3195 H       
@<TRIPOS>BOND
   1    1    2 ar
   2    1    6 ar
   3    1   24 1
   4    2    3 ar
   5    2    8 1
   6    3    4 ar
   7    4    5 ar
   8    4   14 1
   9    5    6 ar
  10    6    7 1
  11    8    9 1
  12    8   10 1
  13    9   13 1
  14    9   25 1
  15    9   26 1
  16   10   11 1
  17   10   27 1
  18   10   28 1
  19   11   12 1
  20   11   16 1
  21   11   29 1
  22   12   13 1
  23   12   30 1
  24   12   31 1
  25   13   32 1
  26   13   33 1
  27   14   15 1
  28   14   34 1
  29   15   35 1
  30   15   36 1
  31   15   37 1
  32   16   22 am
  33   16   38 1
  34   17   18 1
  35   17   22 1
  36   18   19 1
  37   18   20 1
  38   18   21 1
  39   19   39 1
  40   19   40 1
  41   19   41 1
  42   20   42 1
  43   20   43 1
  44   20   44 1
  45   21   45 1
  46   21   46 1
  47   21   47 1
  48   22   23 2

#	End of record

