#	Name: ASD05380002
#	Creating user name:	WinNT
#	Creation time:	15. 06. 2019 20:59

#	Modifying user name:	WinNT
#	Modification time:	15. 06. 2019 20:59

#	Program:	/corina/corina34_cracker 3.40 0067  02.08.2006

@<TRIPOS>MOLECULE
ASD05380002
  57   61    0    0    0
SMALL
NO_CHARGES


@<TRIPOS>ATOM
   1 C1            -0.0183     1.4965     0.0103 C.3     
   2 C2             0.0021    -0.0041     0.0020 C.2     
   3 C3            -0.3255    -0.8676    -0.9752 C.2     
   4 C4            -0.8158    -0.2824    -2.2296 C.2     
   5 C5            -1.1094     1.1783    -2.2081 C.2     
   6 C6            -0.7421     2.0040    -1.2180 C.2     
   7 C7            -0.6776     1.8696     1.3338 C.3     
   8 O8            -0.1599     1.1405     2.4749 O.3     
   9 C9             0.6653     0.0643     2.3446 C.2     
  10 C10            0.3690    -0.7599     1.1543 C.2     
  11 O11           -0.9740    -0.9639    -3.2287 O.2     
  12 C12           -0.9510     3.4990    -1.2939 C.3     
  13 C13           -1.8567     1.7140    -3.3823 C.3     
  14 C14           -1.3480     3.1392    -3.7014 C.3     
  15 C15           -1.7322     3.9901    -2.5124 C.3     
  16 C16           -1.6798     1.0128    -4.7294 C.3     
  17 C17           -2.1000     2.1113    -5.7461 C.3     
  18 C18           -2.0316     3.4441    -5.0062 C.2     
  19 O19           -2.4373     4.5154    -5.3810 O.2     
  20 C20            0.1651     3.1542    -3.9148 C.3     
  21 C21            1.4253     2.0118    -0.0007 C.3     
  22 C22            0.3282    -2.0507     0.7673 C.2     
  23 O23           -0.0994    -2.1016    -0.5207 O.3     
  24 O24            1.5483    -0.1903     3.1304 O.2     
  25 C25           -3.3550     6.3654    -0.4393 C.3     
  26 O26           -1.9509     6.2172    -0.6595 O.3     
  27 C27           -1.3147     5.3056     0.2385 C.3     
  28 O28           -1.6415     3.9650    -0.1330 O.3     
  29 C29           -4.2326     1.6848     2.4509 C.3     
  30 O30           -2.8314     1.9646     2.4305 O.3     
  31 C31           -2.1668     1.5185     1.2467 C.3     
  32 H32           -0.5603     2.9240     1.5207 H       
  33 H33            0.0294     3.9868    -1.3039 H       
  34 H34           -2.9258     1.7536    -3.1361 H       
  35 H35           -2.8049     3.9030    -2.3221 H       
  36 H36           -1.4872     5.0372    -2.7087 H       
  37 H37           -0.6488     0.7035    -4.8890 H       
  38 H38           -2.3482     0.1506    -4.8041 H       
  39 H39           -1.4141     2.1173    -6.5937 H       
  40 H40           -3.1174     1.9280    -6.0933 H       
  41 H41            0.4210     2.5001    -4.7484 H       
  42 H42            0.4907     4.1704    -4.1372 H       
  43 H43            0.6630     2.8027    -3.0111 H       
  44 H44            1.9317     1.6549    -0.8975 H       
  45 H45            1.4220     3.1018     0.0051 H       
  46 H46            1.9486     1.6453     0.8823 H       
  47 H47            0.5919    -2.9051     1.3746 H       
  48 H48           -3.8457     5.3996    -0.5603 H       
  49 H49           -3.5272     6.7363     0.5711 H       
  50 H50           -3.7632     7.0732    -1.1607 H       
  51 H51           -0.2345     5.4429     0.1907 H       
  52 H52           -1.6606     5.4956     1.2546 H       
  53 H53           -4.6634     2.0544     3.3814 H       
  54 H54           -4.7140     2.1780     1.6065 H       
  55 H55           -4.3891     0.6084     2.3805 H       
  56 H56           -2.6053     2.0083     0.3773 H       
  57 H57           -2.2805     0.4386     1.1512 H       
@<TRIPOS>BOND
   1    1    2 1
   2    1   21 1
   3    1    6 1
   4    1    7 1
   5    2    3 2
   6    2   10 1
   7    3    4 1
   8    3   23 1
   9    4    5 1
  10    4   11 2
  11    5    6 2
  12    5   13 1
  13    6   12 1
  14    7    8 1
  15    7   31 1
  16    7   32 1
  17    8    9 1
  18    9   10 1
  19    9   24 2
  20   10   22 2
  21   12   28 1
  22   12   15 1
  23   12   33 1
  24   13   14 1
  25   13   16 1
  26   13   34 1
  27   14   15 1
  28   14   20 1
  29   14   18 1
  30   15   35 1
  31   15   36 1
  32   16   17 1
  33   16   37 1
  34   16   38 1
  35   17   18 1
  36   17   39 1
  37   17   40 1
  38   18   19 2
  39   20   41 1
  40   20   42 1
  41   20   43 1
  42   21   44 1
  43   21   45 1
  44   21   46 1
  45   22   23 1
  46   22   47 1
  47   25   26 1
  48   25   48 1
  49   25   49 1
  50   25   50 1
  51   26   27 1
  52   27   28 1
  53   27   51 1
  54   27   52 1
  55   29   30 1
  56   29   53 1
  57   29   54 1
  58   29   55 1
  59   30   31 1
  60   31   56 1
  61   31   57 1

#	End of record

