#	Name: ASD01028421
#	Creating user name:	WinNT
#	Creation time:	15. 06. 2019 18:57

#	Modifying user name:	WinNT
#	Modification time:	15. 06. 2019 18:57

#	Program:	/corina/corina34_cracker 3.40 0067  02.08.2006

@<TRIPOS>MOLECULE
ASD01028421
  53   57    0    0    0
SMALL
NO_CHARGES


@<TRIPOS>ATOM
   1 C1            -0.0171     1.4121     0.0098 C.ar    
   2 C2             0.0021    -0.0041     0.0020 C.ar    
   3 C3             1.2106     2.1118     0.0018 C.ar    
   4 C4             2.3793     1.3716    -0.0133 C.ar    
   5 C5             2.3160    -0.0161    -0.0202 C.ar    
   6 N6             1.1705    -0.6564    -0.0123 N.ar    
   7 O7             1.2422     3.4673     0.0084 O.3     
   8 C8             2.5302     4.0862    -0.0005 C.3     
   9 C9             2.3676     5.5844     0.0086 C.2     
  10 N10            2.2919     6.3714     1.1039 N.pl3   
  11 C11            2.1483     7.6567     0.6383 C.2     
  12 N12            2.1441     7.5870    -0.6829 N.2     
  13 N13            2.2800     6.3588    -1.0441 N.2     
  14 N14            2.3304     6.1246     2.4777 N.2     
  15 C15            2.2301     7.1156     3.3363 C.2     
  16 C16            2.0817     8.4460     2.8892 C.2     
  17 C17            2.0413     8.7171     1.5582 C.2     
  18 C18            2.2728     6.8318     4.7912 C.ar    
  19 C19           -1.2149    -0.7042     0.0100 C.ar    
  20 C20           -2.4012    -0.0062     0.0251 C.ar    
  21 C21           -2.4084     1.3917     0.0326 C.ar    
  22 C22           -1.2427     2.0939     0.0310 C.ar    
  23 O23           -3.5785    -0.6836     0.0324 O.3     
  24 C24           -4.7757     0.0965     0.0481 C.3     
  25 C25            2.4185     5.5215     5.2429 C.ar    
  26 C26            2.4585     5.2596     6.5968 C.ar    
  27 C27            2.3534     6.2990     7.5098 C.ar    
  28 C28            2.2078     7.6081     7.0633 C.ar    
  29 C29            2.1730     7.8763     5.7098 C.ar    
  30 F30            2.1053     8.6181     7.9547 F       
  31 O31            2.3923     6.0374     8.8428 O.3     
  32 C32            2.5432     4.6706     9.2316 C.3     
  33 C33            2.5658     4.5742    10.7584 C.3     
  34 H34            3.3371     1.8706    -0.0202 H       
  35 H35            3.2348    -0.5836    -0.0325 H       
  36 H36            3.0885     3.7759     0.8827 H       
  37 H37            3.0719     3.7850    -0.8972 H       
  38 H38            2.0005     9.2498     3.6060 H       
  39 H39            1.9282     9.7333     1.2104 H       
  40 H40           -1.2202    -1.7841     0.0039 H       
  41 H41           -3.3500     1.9205     0.0441 H       
  42 H42           -1.2613     3.1737     0.0368 H       
  43 H43           -4.8080     0.7304    -0.8380 H       
  44 H44           -5.6412    -0.5662     0.0525 H       
  45 H45           -4.7912     0.7203     0.9418 H       
  46 H46            2.4998     4.7113     4.5334 H       
  47 H47            2.5715     4.2441     6.9465 H       
  48 H48            2.0599     8.8928     5.3627 H       
  49 H49            1.7079     4.0880     8.8430 H       
  50 H50            3.4775     4.2794     8.8289 H       
  51 H51            1.6315     4.9655    11.1610 H       
  52 H52            2.6809     3.5317    11.0549 H       
  53 H53            3.4011     5.1568    11.1469 H       
@<TRIPOS>BOND
   1    1    2 ar
   2    1    3 ar
   3    1   22 ar
   4    2   19 ar
   5    2    6 ar
   6    3    4 ar
   7    3    7 1
   8    4    5 ar
   9    4   34 1
  10    5    6 ar
  11    5   35 1
  12    7    8 1
  13    8    9 1
  14    8   36 1
  15    8   37 1
  16    9   10 1
  17    9   13 2
  18   10   11 1
  19   10   14 1
  20   11   12 2
  21   11   17 1
  22   12   13 1
  23   14   15 2
  24   15   16 1
  25   15   18 1
  26   16   17 2
  27   16   38 1
  28   17   39 1
  29   18   25 ar
  30   18   29 ar
  31   19   20 ar
  32   19   40 1
  33   20   21 ar
  34   20   23 1
  35   21   22 ar
  36   21   41 1
  37   22   42 1
  38   23   24 1
  39   24   43 1
  40   24   44 1
  41   24   45 1
  42   25   26 ar
  43   25   46 1
  44   26   27 ar
  45   26   47 1
  46   27   28 ar
  47   27   31 1
  48   28   29 ar
  49   28   30 1
  50   29   48 1
  51   31   32 1
  52   32   33 1
  53   32   49 1
  54   32   50 1
  55   33   51 1
  56   33   52 1
  57   33   53 1

#	End of record

