#	Name: ASD03082366
#	Creating user name:	WinNT
#	Creation time:	15. 06. 2019 20:27

#	Modifying user name:	WinNT
#	Modification time:	15. 06. 2019 20:27

#	Program:	/corina/corina34_cracker 3.40 0067  02.08.2006

@<TRIPOS>MOLECULE
ASD03082366
  53   55    0    0    0
SMALL
NO_CHARGES


@<TRIPOS>ATOM
   1 C1            -3.8224    -0.8080     0.0293 C.ar    
   2 C2            -2.7317    -0.2797     0.7091 C.ar    
   3 C3            -2.8831     0.8690     1.4745 C.ar    
   4 C4            -4.1217     1.4846     1.5575 C.ar    
   5 C5            -5.2077     0.9522     0.8762 C.ar    
   6 C6            -5.0555    -0.1909     0.1149 C.ar    
   7 N7            -1.4848    -0.9036     0.6231 N.pl3   
   8 C8            -1.4065    -2.2829     0.4033 C.2     
   9 C9            -0.2270    -3.0191     0.1978 C.2     
  10 N10           -2.4214    -3.1140     0.3591 N.2     
  11 N11           -1.9232    -4.4010     0.1187 N.pl3   
  12 C12           -0.5705    -4.3149     0.0236 C.2     
  13 C13           -2.6833    -5.5685     0.0012 C.ar    
  14 C14           -2.2726    -6.7529     0.6097 C.ar    
  15 C15           -3.8743    -5.5764    -0.7227 C.ar    
  16 C16           -4.5955    -6.7489    -0.8144 C.ar    
  17 N17           -4.1706    -7.8520    -0.2278 N.ar    
  18 C18           -3.0515    -7.8836     0.4702 C.ar    
  19 C19           -5.8851    -6.7701    -1.5939 C.3     
  20 H20           -2.7385    -8.8071     0.9345 H       
  21 C21            0.3769    -5.4588    -0.2309 C.3     
  22 C22            0.9846    -5.9222     1.0946 C.3     
  23 C23            1.8383    -7.1692     0.8559 C.3     
  24 C24            2.3443    -7.7052     2.1966 C.3     
  25 O25            1.8019    -4.8814     1.6336 O.3     
  26 C26           -6.2369    -0.7657    -0.6233 C.3     
  27 F27           -7.3656     0.0259    -0.3853 F       
  28 F28           -5.9637    -0.7879    -1.9951 F       
  29 F29           -6.4781    -2.0687    -0.1746 F       
  30 O30           -4.2734     2.6087     2.3061 O.3     
  31 C31           -3.1134     3.1005     2.9804 C.3     
  32 H32           -3.7051    -1.6988    -0.5699 H       
  33 H33           -2.0372     1.2816     2.0042 H       
  34 H34           -6.1731     1.4320     0.9414 H       
  35 H35           -0.6733    -0.3804     0.7158 H       
  36 H36            0.7765    -2.6200     0.1817 H       
  37 H37           -1.3575    -6.7856     1.1822 H       
  38 H38           -4.2278    -4.6770    -1.2049 H       
  39 H39           -5.6776    -7.0275    -2.6326 H       
  40 H40           -6.5578    -7.5117    -1.1632 H       
  41 H41           -6.3525    -5.7864    -1.5498 H       
  42 H42           -0.1659    -6.2849    -0.6902 H       
  43 H43            1.1722    -5.1300    -0.8999 H       
  44 H44            0.1858    -6.1580     1.7978 H       
  45 H45            1.2364    -7.9328     0.3631 H       
  46 H46            2.6880    -6.9122     0.2233 H       
  47 H47            2.9526    -8.5936     2.0265 H       
  48 H48            2.9462    -6.9416     2.6893 H       
  49 H49            1.4947    -7.9622     2.8291 H       
  50 H50            2.5349    -4.6198     1.0597 H       
  51 H51           -2.7422     2.3394     3.6667 H       
  52 H52           -2.3411     3.3378     2.2487 H       
  53 H53           -3.3723     3.9993     3.5400 H       
@<TRIPOS>BOND
   1    1    2 ar
   2    1    6 ar
   3    1   32 1
   4    2    3 ar
   5    2    7 1
   6    3    4 ar
   7    3   33 1
   8    4    5 ar
   9    4   30 1
  10    5    6 ar
  11    5   34 1
  12    6   26 1
  13    7    8 1
  14    7   35 1
  15    8    9 1
  16    8   10 2
  17    9   12 2
  18    9   36 1
  19   10   11 1
  20   11   12 1
  21   11   13 1
  22   12   21 1
  23   13   14 ar
  24   13   15 ar
  25   14   18 ar
  26   14   37 1
  27   15   16 ar
  28   15   38 1
  29   16   17 ar
  30   16   19 1
  31   17   18 ar
  32   18   20 1
  33   19   39 1
  34   19   40 1
  35   19   41 1
  36   21   22 1
  37   21   42 1
  38   21   43 1
  39   22   23 1
  40   22   25 1
  41   22   44 1
  42   23   24 1
  43   23   45 1
  44   23   46 1
  45   24   47 1
  46   24   48 1
  47   24   49 1
  48   25   50 1
  49   26   27 1
  50   26   28 1
  51   26   29 1
  52   30   31 1
  53   31   51 1
  54   31   52 1
  55   31   53 1

#	End of record

