#	Name: ASD05130056
#	Creating user name:	WinNT
#	Creation time:	15. 06. 2019 20:56

#	Modifying user name:	WinNT
#	Modification time:	15. 06. 2019 20:56

#	Program:	/corina/corina34_cracker 3.40 0067  02.08.2006

@<TRIPOS>MOLECULE
ASD05130056
  59   63    0    0    0
SMALL
NO_CHARGES


@<TRIPOS>ATOM
   1 N1            -0.3092     1.5652     0.4875 N.am    
   2 C2            -0.0173     0.2521     0.5716 C.2     
   3 O3             1.0651    -0.1043     0.9963 O.2     
   4 N4            -0.9251    -0.6661     0.1850 N.am    
   5 C5            -0.5805    -2.0240     0.1584 C.ar    
   6 C6            -1.5723    -2.9957     0.2539 C.ar    
   7 C7            -1.2354    -4.3373     0.2280 C.ar    
   8 C8             0.0873    -4.7188     0.1077 C.ar    
   9 C9             1.0864    -3.7506     0.0120 C.ar    
  10 C10            0.7469    -2.3995     0.0314 C.ar    
  11 F11           -2.8668    -2.6280     0.3726 F       
  12 N12            4.2729    -4.8519    -1.6705 N.am    
  13 C13            3.2060    -4.0531    -1.4191 C.2     
  14 C14            2.5069    -4.1585    -0.1168 C.2     
  15 C15            3.1861    -4.6324     0.9528 C.2     
  16 C16            4.6163    -5.0363     0.7330 C.3     
  17 C17            5.1380    -5.9592     1.7958 C.2     
  18 N18            6.1614    -6.7067     1.5214 N.2     
  19 C19            6.7805    -6.6637     0.3038 C.2     
  20 C20            6.1343    -6.2219    -0.7877 C.2     
  21 C21            4.7149    -5.7581    -0.6178 C.3     
  22 O22            2.8265    -3.2566    -2.2555 O.2     
  23 N23            8.1058    -7.0852     0.1927 N.pl3   
  24 C24            8.8221    -7.5689     1.3756 C.3     
  25 C25            4.9576    -4.8095    -2.9650 C.3     
  26 C26            6.0803    -3.7713    -2.9143 C.3     
  27 Cl27           0.5053    -6.4035     0.0762 Cl      
  28 C28            1.4314     4.6906     1.4073 C.ar    
  29 C29            0.4132     3.9514     0.7987 C.ar    
  30 C30            0.5872     2.5196     1.0032 C.2     
  31 C31            1.6528     2.1869     1.7115 C.2     
  32 S32            2.5603     3.6030     2.2051 S.3     
  33 C33           -0.6023     4.6379     0.1004 C.ar    
  34 C34           -0.5884     5.9970     0.0218 C.ar    
  35 C35            0.4242     6.7291     0.6266 C.ar    
  36 C36            1.4235     6.0863     1.3184 C.ar    
  37 H37           -1.1352     1.8525     0.0680 H       
  38 H38           -1.8170    -0.3869    -0.0748 H       
  39 H39           -2.0081    -5.0882     0.3024 H       
  40 H40            1.5172    -1.6466    -0.0473 H       
  41 H41            2.7202    -4.7165     1.9235 H       
  42 H42            5.2401    -4.1433     0.6948 H       
  43 H43            4.6709    -5.9995     2.7688 H       
  44 H44            6.6177    -6.2004    -1.7532 H       
  45 H45            4.0667    -6.6343    -0.6037 H       
  46 H46            8.5529    -7.0581    -0.6676 H       
  47 H47            9.8369    -7.8515     1.0955 H       
  48 H48            8.8590    -6.7793     2.1261 H       
  49 H49            8.3036    -8.4357     1.7853 H       
  50 H50            5.3792    -5.7902    -3.1853 H       
  51 H51            4.2455    -4.5369    -3.7439 H       
  52 H52            5.6586    -2.7906    -2.6940 H       
  53 H53            6.7924    -4.0439    -2.1354 H       
  54 H54            6.5897    -3.7398    -3.8774 H       
  55 H55            1.9291     1.1717     1.9550 H       
  56 H56           -1.3962     4.0814    -0.3754 H       
  57 H57           -1.3718     6.5100    -0.5163 H       
  58 H58            0.4247     7.8068     0.5570 H       
  59 H59            2.2086     6.6603     1.7879 H       
@<TRIPOS>BOND
   1    1    2 am
   2    1   30 1
   3    1   37 1
   4    2    3 2
   5    2    4 am
   6    4    5 1
   7    4   38 1
   8    5    6 ar
   9    5   10 ar
  10    6    7 ar
  11    6   11 1
  12    7    8 ar
  13    7   39 1
  14    8    9 ar
  15    8   27 1
  16    9   10 ar
  17    9   14 1
  18   10   40 1
  19   12   13 am
  20   12   21 1
  21   12   25 1
  22   13   14 1
  23   13   22 2
  24   14   15 2
  25   15   16 1
  26   15   41 1
  27   16   17 1
  28   16   21 1
  29   16   42 1
  30   17   18 2
  31   17   43 1
  32   18   19 1
  33   19   20 2
  34   19   23 1
  35   20   21 1
  36   20   44 1
  37   21   45 1
  38   23   24 1
  39   23   46 1
  40   24   47 1
  41   24   48 1
  42   24   49 1
  43   25   26 1
  44   25   50 1
  45   25   51 1
  46   26   52 1
  47   26   53 1
  48   26   54 1
  49   28   29 ar
  50   28   32 1
  51   28   36 ar
  52   29   30 1
  53   29   33 ar
  54   30   31 2
  55   31   32 1
  56   31   55 1
  57   33   34 ar
  58   33   56 1
  59   34   35 ar
  60   34   57 1
  61   35   36 ar
  62   35   58 1
  63   36   59 1

#	End of record

