#	Name: ASD08070100
#	Creating user name:	WinNT
#	Creation time:	15. 06. 2019 21:14

#	Modifying user name:	WinNT
#	Modification time:	15. 06. 2019 21:14

#	Program:	/corina/corina34_cracker 3.40 0067  02.08.2006

@<TRIPOS>MOLECULE
ASD08070100
  37   39    0    0    0
SMALL
NO_CHARGES


@<TRIPOS>ATOM
   1 C1            -0.0365     1.3965    -0.2557 C.2     
   2 C2            -0.0056    -0.0096    -0.1041 C.2     
   3 N3             2.3382     0.0399    -0.4338 N.2     
   4 C4             2.2963     1.3462    -0.5732 C.2     
   5 N5             1.1275     2.0425    -0.4885 N.am    
   6 N6            -0.9484    -0.9544     0.1311 N.2     
   7 C7            -0.3820    -2.1245     0.1824 C.2     
   8 N8             0.9620    -1.9971    -0.0179 N.pl3   
   9 C9             1.2260    -0.6670    -0.2018 C.2     
  10 C10            1.9427    -3.0853    -0.0326 C.3     
  11 O11            1.4019    -4.2585     0.6132 O.3     
  12 C12            0.5234    -4.8593    -0.3631 C.3     
  13 C13            1.2748    -4.7245    -1.7061 C.3     
  14 C14            2.2301    -3.5306    -1.4837 C.3     
  15 O15            2.0163    -5.9135    -1.9865 O.3     
  16 O16            1.9334    -2.4746    -2.3996 O.3     
  17 C17            0.2869    -6.3339    -0.0308 C.3     
  18 O18           -0.4458    -6.4350     1.1919 O.3     
  19 P19           -0.8720    -7.8436     1.8448 P.3     
  20 O20            0.3830    -8.7248     2.0330 O.2     
  21 O21           -1.5651    -7.5845     3.2747 O.3     
  22 O22           -1.8710    -8.5628     0.9111 O.3     
  23 O23           -1.0877     2.0098    -0.1832 O.2     
  24 N24            3.4629     2.0289    -0.8100 N.pl3   
  25 H25            1.1313     3.0065    -0.5962 H       
  26 H26           -0.8981    -3.0570     0.3575 H       
  27 H27            2.8636    -2.7719     0.4593 H       
  28 H28           -0.4240    -4.3217    -0.4028 H       
  29 H29            0.5763    -4.5093    -2.5147 H       
  30 H30            3.2679    -3.8473    -1.5876 H       
  31 H31            2.5077    -5.8835    -2.8188 H       
  32 H32            2.0388    -2.7191    -3.3292 H       
  33 H33           -0.2818    -6.8009    -0.8349 H       
  34 H34            1.2461    -6.8403     0.0775 H       
  35 H35           -1.8480    -8.3913     3.7266 H       
  36 H36            4.3026     1.5472    -0.8723 H       
  37 H37            3.4479     2.9930    -0.9150 H       
@<TRIPOS>BOND
   1    1    2 1
   2    1    5 am
   3    1   23 2
   4    2    6 1
   5    2    9 2
   6    3    4 2
   7    3    9 1
   8    4    5 1
   9    4   24 1
  10    5   25 1
  11    6    7 2
  12    7    8 1
  13    7   26 1
  14    8    9 1
  15    8   10 1
  16   10   11 1
  17   10   14 1
  18   10   27 1
  19   11   12 1
  20   12   13 1
  21   12   17 1
  22   12   28 1
  23   13   14 1
  24   13   15 1
  25   13   29 1
  26   14   16 1
  27   14   30 1
  28   15   31 1
  29   16   32 1
  30   17   18 1
  31   17   33 1
  32   17   34 1
  33   18   19 1
  34   19   20 2
  35   19   21 1
  36   19   22 1
  37   21   35 1
  38   24   36 1
  39   24   37 1

#	End of record

