#	Name: ASD06620018
#	Creating user name:	WinNT
#	Creation time:	15. 06. 2019 21:07

#	Modifying user name:	WinNT
#	Modification time:	15. 06. 2019 21:07

#	Program:	/corina/corina34_cracker 3.40 0067  02.08.2006

@<TRIPOS>MOLECULE
ASD06620018
  59   64    0    0    0
SMALL
NO_CHARGES


@<TRIPOS>ATOM
   1 C1            -0.7764    -3.5006    -0.5162 C.ar    
   2 C2            -0.3195    -2.2180    -0.2685 C.ar    
   3 C3             1.0601    -1.9852    -0.2202 C.ar    
   4 C4             1.9215    -3.0558    -0.4237 C.ar    
   5 C5             1.3849    -4.3048    -0.6652 C.ar    
   6 N6             0.0779    -4.4891    -0.7041 N.ar    
   7 C7             0.0174    -0.0634     0.1465 C.2     
   8 N8            -0.9394    -0.9943    -0.0349 N.am    
   9 N9             1.2327    -0.6349     0.0398 N.am    
  10 O10           -0.1854     1.1150     0.3718 O.2     
  11 C11            2.5184     0.0540     0.1763 C.3     
  12 C12            2.8168     1.1929    -0.8007 C.3     
  13 C13            2.4946     1.5046     0.6621 C.3     
  14 C14           -2.3847    -0.7586     0.0062 C.3     
  15 C15           -3.6507    -0.9623    -3.3863 C.2     
  16 C16           -4.1150    -1.5156    -4.5959 C.2     
  17 C17           -4.4658    -0.6862    -5.6172 C.2     
  18 C18           -4.3602     0.7058    -5.4506 C.2     
  19 C19           -3.9137     1.2196    -4.2858 C.2     
  20 N20           -3.5589     0.3991    -3.2544 N.pl3   
  21 N21           -3.2433    -1.5130    -2.2512 N.2     
  22 C22           -2.8994    -0.5481    -1.3945 C.2     
  23 C23           -3.0855     0.6479    -1.9940 C.2     
  24 C24           -2.8195     2.0025    -1.3896 C.3     
  25 C25           -4.1198     2.5695    -0.8165 C.3     
  26 C26           -3.8537     3.9242    -0.2121 C.2     
  27 O27           -2.7343     4.3901    -0.2373 O.2     
  28 O28           -6.9713     6.3653     0.5665 O.3     
  29 C29           -5.6645     6.9177     0.3905 C.3     
  30 C30           -4.6242     5.9422     0.9529 C.3     
  31 N31           -4.8597     4.6178     0.3564 N.am    
  32 C32           -6.2261     4.0733     0.3986 C.3     
  33 C33           -7.1883     5.1398    -0.1369 C.3     
  34 Cl34          -5.0401    -1.3442    -7.1175 Cl      
  35 H35           -1.8382    -3.6947    -0.5517 H       
  36 H36            2.9917    -2.9137    -0.3940 H       
  37 H37            2.0448    -5.1446    -0.8253 H       
  38 H38            3.3545    -0.5695     0.4930 H       
  39 H39            3.8493     1.3190    -1.1265 H       
  40 H40            2.0566     1.4297    -1.5451 H       
  41 H41            1.5223     1.9464     0.8802 H       
  42 H42            3.3150     1.8357     1.2987 H       
  43 H43           -2.8811    -1.6217     0.4498 H       
  44 H44           -2.5914     0.1276     0.6062 H       
  45 H45           -4.1914    -2.5866    -4.7121 H       
  46 H46           -4.6376     1.3666    -6.2585 H       
  47 H47           -3.8361     2.2904    -4.1684 H       
  48 H48           -2.0825     1.9062    -0.5923 H       
  49 H49           -2.4376     2.6746    -2.1582 H       
  50 H50           -4.8567     2.6658    -1.6138 H       
  51 H51           -4.5016     1.8975    -0.0480 H       
  52 H52           -5.4769     7.0777    -0.6713 H       
  53 H53           -5.5964     7.8678     0.9202 H       
  54 H54           -3.6221     6.2868     0.6978 H       
  55 H55           -4.7270     5.8804     2.0363 H       
  56 H56           -6.2848     3.1803    -0.2236 H       
  57 H57           -6.4902     3.8233     1.4262 H       
  58 H58           -8.2166     4.8109     0.0135 H       
  59 H59           -7.0062     5.2933    -1.2005 H       
@<TRIPOS>BOND
   1    1    2 ar
   2    1    6 ar
   3    1   35 1
   4    2    3 ar
   5    2    8 1
   6    3    4 ar
   7    3    9 1
   8    4    5 ar
   9    4   36 1
  10    5    6 ar
  11    5   37 1
  12    7    8 am
  13    7    9 am
  14    7   10 2
  15    8   14 1
  16    9   11 1
  17   11   12 1
  18   11   13 1
  19   11   38 1
  20   12   13 1
  21   12   39 1
  22   12   40 1
  23   13   41 1
  24   13   42 1
  25   14   22 1
  26   14   43 1
  27   14   44 1
  28   15   16 1
  29   15   20 1
  30   15   21 2
  31   16   17 2
  32   16   45 1
  33   17   18 1
  34   17   34 1
  35   18   19 2
  36   18   46 1
  37   19   20 1
  38   19   47 1
  39   20   23 1
  40   21   22 1
  41   22   23 2
  42   23   24 1
  43   24   25 1
  44   24   48 1
  45   24   49 1
  46   25   26 1
  47   25   50 1
  48   25   51 1
  49   26   27 2
  50   26   31 am
  51   28   29 1
  52   28   33 1
  53   29   30 1
  54   29   52 1
  55   29   53 1
  56   30   31 1
  57   30   54 1
  58   30   55 1
  59   31   32 1
  60   32   33 1
  61   32   56 1
  62   32   57 1
  63   33   58 1
  64   33   59 1

#	End of record

