#	Name: ASD07300112
#	Creating user name:	WinNT
#	Creation time:	15. 06. 2019 21:09

#	Modifying user name:	WinNT
#	Modification time:	15. 06. 2019 21:09

#	Program:	/corina/corina34_cracker 3.40 0067  02.08.2006

@<TRIPOS>MOLECULE
ASD07300112
  52   56    0    0    0
SMALL
NO_CHARGES


@<TRIPOS>ATOM
   1 C1            -0.0583     1.3996     0.0469 C.2     
   2 C2            -0.0713    -0.0567    -0.1642 C.2     
   3 C3             1.1770    -0.7239    -0.1455 C.2     
   4 C4             2.2908     0.0218     0.0646 C.2     
   5 N5             2.2054     1.3584     0.2499 N.pl3   
   6 N6             1.0962     2.0010     0.2399 N.2     
   7 O7            -1.1156    -0.6643    -0.3476 O.2     
   8 N8            -2.2413     2.2051    -0.9695 N.pl3   
   9 N9            -3.2761     3.0602    -0.5704 N.2     
  10 C10           -2.9996     3.5285     0.6206 C.2     
  11 C11           -1.7794     2.9973     1.0384 C.2     
  12 C12           -1.3167     2.1727     0.0363 C.2     
  13 C13           -2.1698     1.5042    -2.1800 C.ar    
  14 C14           -3.3015     0.8842    -2.6930 C.ar    
  15 C15           -3.2278     0.1942    -3.8871 C.ar    
  16 C16           -2.0286     0.1203    -4.5718 C.ar    
  17 C17           -0.8997     0.7361    -4.0633 C.ar    
  18 C18           -0.9683     1.4325    -2.8726 C.ar    
  19 C19            3.3864     2.0760     0.4630 C.ar    
  20 C20            3.5193     2.8791     1.5955 C.ar    
  21 C21            4.6885     3.5888     1.8055 C.ar    
  22 C22            5.7299     3.4991     0.8850 C.ar    
  23 C23            5.5927     2.6951    -0.2455 C.ar    
  24 C24            4.4291     1.9841    -0.4505 C.ar    
  25 C25            6.9852     4.2597     1.1074 C.2     
  26 C26            7.2631     5.1067     2.1981 C.2     
  27 N27            8.4659     5.5919     2.0390 N.2     
  28 N28            8.9993     5.0785     0.8506 N.pl3   
  29 C29            8.0819     4.2609     0.2955 C.2     
  30 O30            2.5012     2.9650     2.4918 O.3     
  31 C31            2.7067     3.8064     3.6284 C.3     
  32 C32           10.3270     5.3746     0.3066 C.3     
  33 H33            1.2406    -1.7919    -0.2933 H       
  34 H34            3.2580    -0.4584     0.0844 H       
  35 H35           -3.6144     4.2132     1.1859 H       
  36 H36           -1.2859     3.1967     1.9782 H       
  37 H37           -4.2383     0.9413    -2.1586 H       
  38 H38           -4.1076    -0.2885    -4.2865 H       
  39 H39           -1.9735    -0.4199    -5.5054 H       
  40 H40            0.0355     0.6763    -4.6002 H       
  41 H41           -0.0874     1.9174    -2.4784 H       
  42 H42            4.7933     4.2116     2.6816 H       
  43 H43            6.4002     2.6255    -0.9593 H       
  44 H44            4.3266     1.3580    -1.3245 H       
  45 H45            6.5980     5.3182     3.0222 H       
  46 H46            8.1929     3.7112    -0.6274 H       
  47 H47            1.8197     3.7849     4.2615 H       
  48 H48            3.5663     3.4482     4.1950 H       
  49 H49            2.8910     4.8279     3.2957 H       
  50 H50           11.0465     4.6515     0.6906 H       
  51 H51           10.2958     5.3136    -0.7812 H       
  52 H52           10.6264     6.3791     0.6058 H       
@<TRIPOS>BOND
   1    1    2 1
   2    1    6 2
   3    1   12 1
   4    2    3 1
   5    2    7 2
   6    3    4 2
   7    3   33 1
   8    4    5 1
   9    4   34 1
  10    5    6 1
  11    5   19 1
  12    8    9 1
  13    8   12 1
  14    8   13 1
  15    9   10 2
  16   10   11 1
  17   10   35 1
  18   11   12 2
  19   11   36 1
  20   13   14 ar
  21   13   18 ar
  22   14   15 ar
  23   14   37 1
  24   15   16 ar
  25   15   38 1
  26   16   17 ar
  27   16   39 1
  28   17   18 ar
  29   17   40 1
  30   18   41 1
  31   19   20 ar
  32   19   24 ar
  33   20   21 ar
  34   20   30 1
  35   21   22 ar
  36   21   42 1
  37   22   23 ar
  38   22   25 1
  39   23   24 ar
  40   23   43 1
  41   24   44 1
  42   25   26 1
  43   25   29 2
  44   26   27 2
  45   26   45 1
  46   27   28 1
  47   28   29 1
  48   28   32 1
  49   29   46 1
  50   30   31 1
  51   31   47 1
  52   31   48 1
  53   31   49 1
  54   32   50 1
  55   32   51 1
  56   32   52 1

#	End of record

