#	Name: ASD08178525
#	Creating user name:	WinNT
#	Creation time:	15. 06. 2019 21:19

#	Modifying user name:	WinNT
#	Modification time:	15. 06. 2019 21:19

#	Program:	/corina/corina34_cracker 3.40 0067  02.08.2006

@<TRIPOS>MOLECULE
ASD08178525
  27   28    0    0    0
SMALL
NO_CHARGES


@<TRIPOS>ATOM
   1 C1            -0.0193     1.3895     0.0131 C.ar    
   2 C2            -0.0051     0.0073     0.0008 C.ar    
   3 C3             1.1990    -0.6714    -0.0188 C.ar    
   4 C4             2.3889     0.0322    -0.0266 C.ar    
   5 C5             2.3747     1.4144    -0.0152 C.ar    
   6 C6             1.1706     2.0930     0.0058 C.ar    
   7 C7             3.6719     2.1814    -0.0232 C.3     
   8 C8             4.0887     2.4485    -1.4466 C.2     
   9 O9             3.4003     2.0549    -2.3641 O.2     
  10 N10            5.2266     3.1249    -1.6998 N.am    
  11 C11            5.6687     3.2790    -3.0139 C.ar    
  12 C12            6.7844     4.0676    -3.2888 C.ar    
  13 C13            7.1840     4.1887    -4.6106 C.ar    
  14 C14            6.4486     3.5174    -5.5787 C.ar    
  15 N15            5.4042     2.7916    -5.2274 N.ar    
  16 N16            5.0331     2.6722    -4.0046 N.ar    
  17 Cl17           6.9029     3.6335    -7.2501 Cl      
  18 H18           -0.9601     1.9197     0.0239 H       
  19 H19           -0.9347    -0.5424     0.0069 H       
  20 H20            1.2102    -1.7513    -0.0277 H       
  21 H21            3.3297    -0.4981    -0.0412 H       
  22 H22            1.1595     3.1729     0.0143 H       
  23 H23            3.5374     3.1282     0.4998 H       
  24 H24            4.4431     1.5961     0.4775 H       
  25 H25            5.7382     3.5046    -0.9684 H       
  26 H26            7.3208     4.5690    -2.4968 H       
  27 H27            8.0415     4.7876    -4.8797 H       
@<TRIPOS>BOND
   1    1    2 ar
   2    1    6 ar
   3    1   18 1
   4    2    3 ar
   5    2   19 1
   6    3    4 ar
   7    3   20 1
   8    4    5 ar
   9    4   21 1
  10    5    6 ar
  11    5    7 1
  12    6   22 1
  13    7    8 1
  14    7   23 1
  15    7   24 1
  16    8    9 2
  17    8   10 am
  18   10   11 1
  19   10   25 1
  20   11   12 ar
  21   11   16 ar
  22   12   13 ar
  23   12   26 1
  24   13   14 ar
  25   13   27 1
  26   14   15 ar
  27   14   17 1
  28   15   16 ar

#	End of record

