#	Name: ASD04882203
#	Creating user name:	WinNT
#	Creation time:	15. 06. 2019 20:54

#	Modifying user name:	WinNT
#	Modification time:	15. 06. 2019 20:54

#	Program:	/corina/corina34_cracker 3.40 0067  02.08.2006

@<TRIPOS>MOLECULE
ASD04882203
  76   80    0    0    0
SMALL
NO_CHARGES


@<TRIPOS>ATOM
   1 C1             0.1258     1.4842    -0.4336 C.2     
   2 C2             0.1460     0.0186    -0.4842 C.2     
   3 N3             1.1860    -0.6594     0.0404 N.am    
   4 C4             1.1515    -2.0588     0.0998 C.ar    
   5 C5             2.3302    -2.7945    -0.0510 C.ar    
   6 C6             2.2974    -4.1831     0.0077 C.ar    
   7 C7             1.1041    -4.8387     0.2146 C.ar    
   8 C8            -0.0784    -4.1090     0.3662 C.ar    
   9 C9            -0.0473    -2.7127     0.3133 C.ar    
  10 N10            3.5390    -2.1358    -0.2608 N.3     
  11 C11            3.5456    -1.4485    -1.5598 C.3     
  12 C12            4.6713    -3.0665    -0.1549 C.3     
  13 C13            5.9817    -2.2916    -0.3123 C.3     
  14 N14            5.9883    -1.6043    -1.6112 N.3     
  15 C15            4.8560    -0.6735    -1.7171 C.3     
  16 C16            7.2008    -0.9435    -1.8217 C.ar    
  17 C17            7.9952    -1.2770    -2.9110 C.ar    
  18 C18            7.6121     0.0527    -0.9450 C.ar    
  19 C19            8.8113     0.7039    -1.1560 C.ar    
  20 C20            9.6025     0.3657    -2.2388 C.ar    
  21 C21            9.1937    -0.6217    -3.1161 C.ar    
  22 C22           -1.3566    -4.8116     0.5874 C.2     
  23 N23           -1.3848    -6.1579     0.6434 N.am    
  24 O24           -2.3849    -4.1760     0.7192 O.2     
  25 O25           -0.7763    -0.5853    -0.9997 O.2     
  26 S26            1.3685     2.5169     0.2695 S.3     
  27 C27            0.4658     3.9061    -0.1518 C.2     
  28 N28           -0.6314     3.5672    -0.7487 N.2     
  29 C29           -0.8503     2.2882    -0.9252 C.2     
  30 C30            7.5505    -2.3530    -3.8678 C.3     
  31 C31            0.8879     5.3248     0.1316 C.3     
  32 C32           -2.6541    -6.8555     0.8631 C.3     
  33 C33           -2.4091    -8.3657     0.8838 C.3     
  34 C34           -3.7348    -9.0943     1.1132 C.3     
  35 N35           -3.5003   -10.5402     1.1331 N.am    
  36 C36           -3.1858   -11.3116     2.3415 C.3     
  37 C37           -2.6048   -12.6507     1.8360 C.3     
  38 C38           -3.2449   -12.7625     0.4329 C.3     
  39 C39           -3.5510   -11.3318     0.0480 C.2     
  40 O40           -3.7989   -10.9531    -1.0772 O.2     
  41 H41            1.9584    -0.1786     0.3768 H       
  42 H42            3.2098    -4.7490    -0.1095 H       
  43 H43            1.0819    -5.9175     0.2594 H       
  44 H44           -0.9593    -2.1462     0.4304 H       
  45 H45            3.4592    -2.1831    -2.3603 H       
  46 H46            2.7054    -0.7559    -1.6090 H       
  47 H47            4.6517    -3.5536     0.8200 H       
  48 H48            4.5977    -3.8196    -0.9395 H       
  49 H49            6.0681    -1.5569     0.4883 H       
  50 H50            6.8219    -2.9841    -0.2630 H       
  51 H51            4.8756    -0.1864    -2.6920 H       
  52 H52            4.9296     0.0795    -0.9325 H       
  53 H53            6.9944     0.3178    -0.0997 H       
  54 H54            9.1316     1.4784    -0.4749 H       
  55 H55           10.5397     0.8770    -2.4019 H       
  56 H56            9.8139    -0.8834    -3.9607 H       
  57 H57           -0.5645    -6.6649     0.5383 H       
  58 H58           -1.7355     1.9061    -1.4118 H       
  59 H59            6.9594    -1.9066    -4.6674 H       
  60 H60            8.4251    -2.8448    -4.2936 H       
  61 H61            6.9452    -3.0860    -3.3344 H       
  62 H62            1.4714     5.7047    -0.7070 H       
  63 H63            0.0032     5.9463     0.2700 H       
  64 H64            1.4944     5.3494     1.0370 H       
  65 H65           -3.0800    -6.5434     1.8166 H       
  66 H66           -3.3472    -6.6109     0.0581 H       
  67 H67           -1.9832    -8.6778    -0.0697 H       
  68 H68           -1.7161    -8.6103     1.6888 H       
  69 H69           -4.1607    -8.7821     2.0668 H       
  70 H70           -4.4279    -8.8497     0.3083 H       
  71 H71           -2.4471   -10.7835     2.9445 H       
  72 H72           -4.0911   -11.4884     2.9223 H       
  73 H73           -1.5181   -12.6029     1.7663 H       
  74 H74           -2.9173   -13.4772     2.4743 H       
  75 H75           -2.5432   -13.2084    -0.2721 H       
  76 H76           -4.1642   -13.3463     0.4784 H       
@<TRIPOS>BOND
   1    1    2 1
   2    1   26 1
   3    1   29 2
   4    2    3 am
   5    2   25 2
   6    3    4 1
   7    3   41 1
   8    4    5 ar
   9    4    9 ar
  10    5    6 ar
  11    5   10 1
  12    6    7 ar
  13    6   42 1
  14    7    8 ar
  15    7   43 1
  16    8    9 ar
  17    8   22 1
  18    9   44 1
  19   10   11 1
  20   10   12 1
  21   11   15 1
  22   11   45 1
  23   11   46 1
  24   12   13 1
  25   12   47 1
  26   12   48 1
  27   13   14 1
  28   13   49 1
  29   13   50 1
  30   14   15 1
  31   14   16 1
  32   15   51 1
  33   15   52 1
  34   16   17 ar
  35   16   18 ar
  36   17   30 1
  37   17   21 ar
  38   18   19 ar
  39   18   53 1
  40   19   20 ar
  41   19   54 1
  42   20   21 ar
  43   20   55 1
  44   21   56 1
  45   22   23 am
  46   22   24 2
  47   23   32 1
  48   23   57 1
  49   26   27 1
  50   27   28 2
  51   27   31 1
  52   28   29 1
  53   29   58 1
  54   30   59 1
  55   30   60 1
  56   30   61 1
  57   31   62 1
  58   31   63 1
  59   31   64 1
  60   32   33 1
  61   32   65 1
  62   32   66 1
  63   33   34 1
  64   33   67 1
  65   33   68 1
  66   34   35 1
  67   34   69 1
  68   34   70 1
  69   35   36 1
  70   35   39 am
  71   36   37 1
  72   36   71 1
  73   36   72 1
  74   37   38 1
  75   37   73 1
  76   37   74 1
  77   38   39 1
  78   38   75 1
  79   38   76 1
  80   39   40 2

#	End of record

