#	Name: ASD04570002
#	Creating user name:	WinNT
#	Creation time:	15. 06. 2019 20:49

#	Modifying user name:	WinNT
#	Modification time:	15. 06. 2019 20:49

#	Program:	/corina/corina34_cracker 3.40 0067  02.08.2006

@<TRIPOS>MOLECULE
ASD04570002
 292  293    0    0    0
SMALL
NO_CHARGES


@<TRIPOS>ATOM
   1 C1             0.8310     6.4487    -0.1168 C.3     
   2 C2             1.0350     4.9891    -0.5279 C.3     
   3 C3             1.7225     4.9353    -1.8937 C.3     
   4 C4             2.0389     3.4810    -2.2484 C.3     
   5 N5            -1.1922     5.9734     1.2245 N.am    
   6 C6             0.0456     6.5036     1.1681 C.2     
   7 C7            -1.9558     6.0268     2.4736 C.3     
   8 C8            -2.9621     4.9053     2.4955 C.2     
   9 C9            -2.6852     7.3684     2.5685 C.3     
  10 C10           -1.6604     8.4998     2.6719 C.3     
  11 C11           -2.3898     9.8414     2.7668 C.3     
  12 O12            0.5273     7.0249     2.1515 O.2     
  13 C13            0.7946     5.5290    -2.9555 C.3     
  14 N14           -1.4086    10.9248     2.8658 N.pl3   
  15 C15           -1.8322    12.2292     2.9622 C.2     
  16 N16           -3.1766    12.5170     2.9657 N.pl3   
  17 N17           -0.9592    13.1931     3.0502 N.2     
  18 N18           -3.7818     4.7560     3.5549 N.am    
  19 O19           -3.0344     4.1370     1.5598 O.2     
  20 C20           -4.7601     3.6657     3.5762 C.3     
  21 C21           -4.0929     2.3919     4.0989 C.3     
  22 C22           -5.9079     4.0383     4.4789 C.2     
  23 O23           -3.7076     2.5809     5.4619 O.3     
  24 O24           -5.9086     5.1090     5.0484 O.2     
  25 N25           -6.9336     3.1815     4.6534 N.am    
  26 C26           -8.0493     3.5436     5.5309 C.3     
  27 C27           -9.0675     4.3727     4.7456 C.3     
  28 C28           -8.7110     2.2911     6.0451 C.2     
  29 C29           -8.4318     5.7009     4.3300 C.3     
  30 S30           -9.6390     6.6839     3.3989 S.3     
  31 C31           -8.7158     8.1939     3.0010 C.3     
  32 O32           -8.2919     1.2031     5.7114 O.2     
  33 N33           -9.7686     2.3801     6.8758 N.am    
  34 C34          -10.4119     1.1624     7.3757 C.3     
  35 C35           -9.6664     0.6639     8.6153 C.3     
  36 C36          -11.8436     1.4630     7.7376 C.2     
  37 O37           -9.7991     1.6210     9.6680 O.3     
  38 C38           -8.1854     0.4775     8.2791 C.3     
  39 O39          -12.2833     2.5839     7.5923 O.2     
  40 N40          -12.6353     0.4861     8.2227 N.am    
  41 C41          -13.9921     0.8008     8.6771 C.3     
  42 C42          -13.9566     1.1915    10.1321 C.2     
  43 N43          -15.0970     1.5251    10.7682 N.am    
  44 O44          -15.8576    -1.7166     6.6319 O.3     
  45 C45          -15.0354    -0.7342     7.0325 C.2     
  46 C46          -14.8868    -0.4278     8.5005 C.3     
  47 O47          -14.4145    -0.0955     6.2162 O.2     
  48 O48          -12.9019     1.2057    10.7306 O.2     
  49 C49          -15.0626     1.9050    12.1827 C.3     
  50 C50          -16.2455     2.7847    12.4955 C.2     
  51 C51          -15.1196     0.6461    13.0504 C.3     
  52 C52          -13.8563    -0.1869    12.8241 C.3     
  53 C53          -13.9133    -1.4458    13.6918 C.3     
  54 C54          -12.6501    -2.2788    13.4655 C.3     
  55 N55          -12.7048    -3.4875    14.2986 N.3     
  56 N56          -16.4215     3.2582    13.7451 N.am    
  57 O57          -17.0392     3.0666    11.6229 O.2     
  58 C58          -17.5714     4.1133    14.0492 C.3     
  59 C59          -17.2516     4.9807    15.2393 C.2     
  60 N60          -18.1679     5.8537    15.7026 N.am    
  61 C61          -18.6349     1.2144    12.9046 C.ar    
  62 C62          -19.1818     2.4628    13.1373 C.ar    
  63 C63          -18.7868     3.2398    14.3667 C.3     
  64 C64          -18.9955     0.5001    11.7785 C.ar    
  65 C65          -19.9070     1.0364    10.8807 C.ar    
  66 C66          -20.4540     2.2894    11.1162 C.ar    
  67 C67          -20.0902     2.9997    12.2438 C.ar    
  68 O68          -16.1696     4.8932    15.7802 O.2     
  69 C69          -17.8570     6.6970    16.8595 C.3     
  70 C70          -19.1366     7.0985    17.5469 C.2     
  71 C71          -17.1142     7.9503    16.3922 C.3     
  72 C72          -15.7583     7.5508    15.8064 C.3     
  73 C73          -15.0155     8.8041    15.3392 C.3     
  74 N74          -13.7173     8.4216    14.7783 N.pl3   
  75 C75          -12.8680     9.3865    14.2905 C.2     
  76 N76          -11.6497     9.0276    13.7642 N.pl3   
  77 N77          -13.2178    10.6416    14.3272 N.2     
  78 O78          -20.2630     0.3358     9.7719 O.3     
  79 N79          -19.0957     7.8806    18.6437 N.am    
  80 O80          -20.2033     6.7177    17.1130 O.2     
  81 C81          -20.3288     8.1817    19.3751 C.3     
  82 C82          -20.1331     9.4533    20.2031 C.3     
  83 N83          -19.6910    10.5456    19.3258 N.3     
  84 C84          -22.3099     6.1606    21.9832 C.3     
  85 C85          -22.0245     7.2674    20.9661 C.3     
  86 C86          -20.6680     7.0149    20.3049 C.3     
  87 C87          -23.1195     7.2729    19.8976 C.3     
  88 C88          -19.4925    11.7855    20.0882 C.3     
  89 C89          -18.4888    12.6789    19.3565 C.3     
  90 C90          -17.1409    12.0053    19.3327 C.2     
  91 N91          -16.4621    11.5624    20.4014 N.2     
  92 N92          -20.8678    13.6807    20.8851 N.am    
  93 C93          -20.8072    12.5102    20.2198 C.2     
  94 O94          -21.8108    12.0400    19.7272 O.2     
  95 C95          -16.4093    11.7375    18.2342 C.2     
  96 N96          -15.2627    11.1243    18.6619 N.pl3   
  97 C97          -15.3352    11.0352    20.0074 C.2     
  98 N98            2.1347     7.0873     0.0801 N.am    
  99 C99            2.7945     7.6108    -0.9722 C.2     
 100 O100           2.3089     7.5532    -2.0820 O.2     
 101 C101           4.1355     8.2677    -0.7696 C.3     
 102 C102           3.9860     9.4452     0.1959 C.3     
 103 N103           4.6412     8.7525    -2.0563 N.am    
 104 C104           5.3651    10.0345     0.4989 C.3     
 105 C105           5.2156    11.2119     1.4644 C.3     
 106 C106           6.5946    11.8012     1.7675 C.3     
 107 N107           6.4511    12.9317     2.6945 N.3     
 108 C108           5.9667     8.9076    -2.2442 C.2     
 109 O109           6.7410     8.6459    -1.3481 O.2     
 110 C110           6.4869     9.4062    -3.5678 C.3     
 111 C111           6.0668     8.4402    -4.6775 C.3     
 112 N112           7.9488     9.4875    -3.5187 N.am    
 113 H113           8.4452     8.9278    -2.9013 H       
 114 C114           8.6040    10.3400    -4.3314 C.2     
 115 O115           7.9833    11.0398    -5.1033 O.2     
 116 C116          10.1078    10.4236    -4.2808 C.3     
 117 C117           6.4864     9.0088    -6.0345 C.3     
 118 C118           6.0663     8.0429    -7.1441 C.3     
 119 C119           6.4859     8.6115    -8.5012 C.3     
 120 N120           6.0826     7.6840    -9.5666 N.3     
 121 C121          10.5954    11.4593    -5.2960 C.3     
 122 C122          12.1222    11.5442    -5.2447 C.3     
 123 C123          12.6098    12.5799    -6.2599 C.3     
 124 C124          14.1365    12.6648    -6.2086 C.3     
 125 C125          14.6241    13.7004    -7.2238 C.3     
 126 C126          16.1509    13.7853    -7.1725 C.3     
 127 C127          16.6385    14.8210    -8.1877 C.3     
 128 C128          18.1653    14.9059    -8.1364 C.3     
 129 C129          18.6529    15.9415    -9.1515 C.3     
 130 C130          20.1797    16.0264    -9.1002 C.3     
 131 C131          20.6672    17.0621   -10.1154 C.3     
 132 C132          22.1940    17.1470   -10.0641 C.3     
 133 C133          22.6816    18.1827   -11.0793 C.3     
 134 C134          24.2084    18.2676   -11.0280 C.3     
 135 H135           0.2839     6.9736    -0.8999 H       
 136 H136           1.6577     4.4868     0.2124 H       
 137 H137           0.0678     4.4900    -0.5881 H       
 138 H138           2.6480     5.5100    -1.8575 H       
 139 H139           1.1134     2.9062    -2.2846 H       
 140 H140           2.5287     3.4426    -3.2214 H       
 141 H141           2.6999     3.0580    -1.4919 H       
 142 H142          -1.5776     5.5565     0.4379 H       
 143 H143          -1.2764     5.9220     3.3195 H       
 144 H144          -3.2974     7.5129     1.6784 H       
 145 H145          -3.3226     7.3737     3.4527 H       
 146 H146          -1.0482     8.3553     3.5620 H       
 147 H147          -1.0230     8.4946     1.7877 H       
 148 H148          -3.0021     9.9859     1.8767 H       
 149 H149          -3.0272     9.8467     3.6510 H       
 150 H150           0.5692     6.5650    -2.7028 H       
 151 H151           1.2844     5.4906    -3.9285 H       
 152 H152          -0.1308     4.9542    -2.9917 H       
 153 H153          -0.4601    10.7218     2.8633 H       
 154 H154          -3.8263    11.7996     2.9002 H       
 155 H155          -3.4754    13.4373     3.0337 H       
 156 H156          -1.2580    14.1134     3.1182 H       
 157 H157          -3.7240     5.3704     4.3032 H       
 158 H158          -5.1332     3.4925     2.5668 H       
 159 H159          -4.7944     1.5604     4.0315 H       
 160 H160          -3.2099     2.1719     3.4989 H       
 161 H161          -3.2772     1.8115     5.8593 H       
 162 H162          -6.9330     2.3251     4.1979 H       
 163 H163          -7.6755     4.1284     6.3715 H       
 164 H164          -9.3750     3.8230     3.8560 H       
 165 H165          -9.9383     4.5669     5.3717 H       
 166 H166          -8.1244     6.2507     5.2196 H       
 167 H167          -7.5610     5.5068     3.7039 H       
 168 H168          -9.3535     8.8703     2.4320 H       
 169 H169          -8.4012     8.6812     3.9238 H       
 170 H170          -7.8378     7.9373     2.4081 H       
 171 H171         -10.1039     3.2503     7.1427 H       
 172 H172         -10.3860     0.3943     6.6028 H       
 173 H173         -10.0890    -0.2887     8.9348 H       
 174 H174          -9.3501     1.3699    10.4868 H       
 175 H175          -7.7627     1.4301     7.9596 H       
 176 H176          -7.6543     0.1223     9.1622 H       
 177 H177          -8.0842    -0.2526     7.4761 H       
 178 H178         -12.3068    -0.4253     8.2711 H       
 179 H179         -14.3898     1.6275     8.0884 H       
 180 H180         -15.9406     1.5137    10.2895 H       
 181 H181         -15.9200    -1.8762     5.6802 H       
 182 H182         -14.4355    -1.2815     9.0060 H       
 183 H183         -15.8679    -0.2276     8.9311 H       
 184 H184         -14.1408     2.4482    12.3907 H       
 185 H185         -15.1836     0.9312    14.1005 H       
 186 H186         -15.9962     0.0576    12.7796 H       
 187 H187         -13.7924    -0.4720    11.7740 H       
 188 H188         -12.9797     0.4016    13.0948 H       
 189 H189         -13.9773    -1.1607    14.7419 H       
 190 H190         -14.7899    -2.0343    13.4210 H       
 191 H191         -12.5861    -2.5638    12.4154 H       
 192 H192         -11.7734    -1.6902    13.7362 H       
 193 H193         -13.5427    -4.0177    14.1118 H       
 194 H194         -11.8809    -4.0549    14.1670 H       
 195 H195         -15.7867     3.0327    14.4430 H       
 196 H196         -17.7925     4.7445    13.1885 H       
 197 H197         -19.0333     5.9237    15.2700 H       
 198 H198         -17.9220     0.7992    13.6016 H       
 199 H199         -18.5362     2.5466    15.1697 H       
 200 H200         -19.6175     3.8727    14.6790 H       
 201 H201         -18.5678    -0.4749    11.5970 H       
 202 H202         -21.1635     2.7092    10.4186 H       
 203 H203         -20.5160     3.9750    12.4278 H       
 204 H204         -17.2294     6.1411    17.5561 H       
 205 H205         -17.7038     8.4590    15.6296 H       
 206 H206         -16.9612     8.6190    17.2393 H       
 207 H207         -15.1687     7.0421    16.5691 H       
 208 H208         -15.9113     6.8821    14.9594 H       
 209 H209         -15.6051     9.3128    14.5765 H       
 210 H210         -14.8625     9.4728    16.1862 H       
 211 H211         -13.4569     7.4876    14.7510 H       
 212 H212         -11.3893     8.0936    13.7369 H       
 213 H213         -11.0505     9.7084    13.4201 H       
 214 H214         -12.6186    11.3224    13.9831 H       
 215 H215         -21.0284    -0.2411     9.9000 H       
 216 H216         -18.2497     8.2443    18.9488 H       
 217 H217         -21.1440     8.3309    18.6671 H       
 218 H218         -21.0758     9.7270    20.6770 H       
 219 H219         -19.3792     9.2753    20.9698 H       
 220 H220         -18.8527    10.2906    18.8254 H       
 221 H221         -21.5298     6.1567    22.7444 H       
 222 H222         -23.2763     6.3405    22.4542 H       
 223 H223         -22.3271     5.1962    21.4755 H       
 224 H224         -22.0073     8.2318    21.4738 H       
 225 H225         -20.7114     6.0912    19.7279 H       
 226 H226         -19.8999     6.9275    21.0734 H       
 227 H227         -24.0947     7.3571    20.3772 H       
 228 H228         -22.9695     8.1198    19.2280 H       
 229 H229         -23.0744     6.3457    19.3263 H       
 230 H230         -19.1093    11.5449    21.0798 H       
 231 H231         -18.8291    12.8467    18.3347 H       
 232 H232         -18.4082    13.6347    19.8742 H       
 233 H233         -20.0652    14.0568    21.2791 H       
 234 H234         -21.7141    14.1472    20.9699 H       
 235 H235         -16.6762    11.9627    17.2123 H       
 236 H236         -14.5351    10.8099    18.1026 H       
 237 H237         -14.5848    10.6002    20.6508 H       
 238 H238           2.5231     7.1334     0.9677 H       
 239 H239           4.8358     7.5434    -0.3536 H       
 240 H240           3.3560    10.2099    -0.2585 H       
 241 H241           3.5271     9.0995     1.1221 H       
 242 H242           4.0220     8.9618    -2.7730 H       
 243 H243           5.9951     9.2698     0.9533 H       
 244 H244           5.8240    10.3802    -0.4273 H       
 245 H245           4.5856    11.9766     1.0101 H       
 246 H246           4.7566    10.8663     2.3907 H       
 247 H247           7.2246    11.0365     2.2219 H       
 248 H248           7.0536    12.1469     0.8412 H       
 249 H249           5.9697    12.6508     3.5356 H       
 250 H250           7.3489    13.3385     2.9104 H       
 251 H251           6.0746    10.3946    -3.7712 H       
 252 H252           6.5507     7.4760    -4.5222 H       
 253 H253           4.9847     8.3112    -4.6565 H       
 254 H254          10.4218    10.7201    -3.2800 H       
 255 H255          10.5342     9.4499    -4.5219 H       
 256 H256           6.0024     9.9731    -6.1897 H       
 257 H257           7.5685     9.1379    -6.0555 H       
 258 H258           6.5503     7.0786    -6.9889 H       
 259 H259           4.9842     7.9138    -7.1232 H       
 260 H260           6.0020     9.5757    -8.6564 H       
 261 H261           7.5680     8.7405    -8.5222 H       
 262 H262           5.0917     7.4975    -9.5277 H       
 263 H263           6.3488     8.0373   -10.4735 H       
 264 H264          10.2814    11.1628    -6.2968 H       
 265 H265          10.1690    12.4331    -5.0550 H       
 266 H266          12.4362    11.8407    -4.2439 H       
 267 H267          12.5485    10.5704    -5.4858 H       
 268 H268          12.2958    12.2834    -7.2607 H       
 269 H269          12.1834    13.5536    -6.0189 H       
 270 H270          14.4505    12.9612    -5.2078 H       
 271 H271          14.5629    11.6910    -6.4496 H       
 272 H272          14.3101    13.4040    -8.2246 H       
 273 H273          14.1978    14.6742    -6.9828 H       
 274 H274          16.4649    14.0818    -6.1717 H       
 275 H275          16.5773    12.8116    -7.4135 H       
 276 H276          16.3245    14.5245    -9.1885 H       
 277 H277          16.2121    15.7947    -7.9466 H       
 278 H278          18.4793    15.2023    -7.1355 H       
 279 H279          18.5916    13.9321    -8.3774 H       
 280 H280          18.3389    15.6451   -10.1524 H       
 281 H281          18.2265    16.9153    -8.9105 H       
 282 H282          20.4936    16.3229    -8.0994 H       
 283 H283          20.6060    15.0527    -9.3413 H       
 284 H284          20.3533    16.7656   -11.1162 H       
 285 H285          20.2409    18.0359    -9.8744 H       
 286 H286          22.5080    17.4435    -9.0633 H       
 287 H287          22.6204    16.1732   -10.3052 H       
 288 H288          22.3676    17.8862   -12.0801 H       
 289 H289          22.2553    19.1564   -10.8383 H       
 290 H290          24.5558    19.0054   -11.7512 H       
 291 H291          24.5224    18.5640   -10.0272 H       
 292 H292          24.6347    17.2938   -11.2690 H       
@<TRIPOS>BOND
   1    1    2 1
   2    1   98 1
   3    1    6 1
   4    1  135 1
   5    2    3 1
   6    2  136 1
   7    2  137 1
   8    3    4 1
   9    3   13 1
  10    3  138 1
  11    4  139 1
  12    4  140 1
  13    4  141 1
  14    5    6 am
  15    5    7 1
  16    5  142 1
  17    6   12 2
  18    7    8 1
  19    7    9 1
  20    7  143 1
  21    8   18 am
  22    8   19 2
  23    9   10 1
  24    9  144 1
  25    9  145 1
  26   10   11 1
  27   10  146 1
  28   10  147 1
  29   11   14 1
  30   11  148 1
  31   11  149 1
  32   13  150 1
  33   13  151 1
  34   13  152 1
  35   14   15 1
  36   14  153 1
  37   15   16 1
  38   15   17 2
  39   16  154 1
  40   16  155 1
  41   17  156 1
  42   18   20 1
  43   18  157 1
  44   20   21 1
  45   20   22 1
  46   20  158 1
  47   21   23 1
  48   21  159 1
  49   21  160 1
  50   22   24 2
  51   22   25 am
  52   23  161 1
  53   25   26 1
  54   25  162 1
  55   26   27 1
  56   26   28 1
  57   26  163 1
  58   27   29 1
  59   27  164 1
  60   27  165 1
  61   28   32 2
  62   28   33 am
  63   29   30 1
  64   29  166 1
  65   29  167 1
  66   30   31 1
  67   31  168 1
  68   31  169 1
  69   31  170 1
  70   33   34 1
  71   33  171 1
  72   34   35 1
  73   34   36 1
  74   34  172 1
  75   35   37 1
  76   35   38 1
  77   35  173 1
  78   36   39 2
  79   36   40 am
  80   37  174 1
  81   38  175 1
  82   38  176 1
  83   38  177 1
  84   40   41 1
  85   40  178 1
  86   41   42 1
  87   41   46 1
  88   41  179 1
  89   42   43 am
  90   42   48 2
  91   43   49 1
  92   43  180 1
  93   44   45 1
  94   44  181 1
  95   45   46 1
  96   45   47 2
  97   46  182 1
  98   46  183 1
  99   49   50 1
 100   49   51 1
 101   49  184 1
 102   50   56 am
 103   50   57 2
 104   51   52 1
 105   51  185 1
 106   51  186 1
 107   52   53 1
 108   52  187 1
 109   52  188 1
 110   53   54 1
 111   53  189 1
 112   53  190 1
 113   54   55 1
 114   54  191 1
 115   54  192 1
 116   55  193 1
 117   55  194 1
 118   56   58 1
 119   56  195 1
 120   58   59 1
 121   58   63 1
 122   58  196 1
 123   59   60 am
 124   59   68 2
 125   60   69 1
 126   60  197 1
 127   61   62 ar
 128   61   64 ar
 129   61  198 1
 130   62   63 1
 131   62   67 ar
 132   63  199 1
 133   63  200 1
 134   64   65 ar
 135   64  201 1
 136   65   66 ar
 137   65   78 1
 138   66   67 ar
 139   66  202 1
 140   67  203 1
 141   69   70 1
 142   69   71 1
 143   69  204 1
 144   70   79 am
 145   70   80 2
 146   71   72 1
 147   71  205 1
 148   71  206 1
 149   72   73 1
 150   72  207 1
 151   72  208 1
 152   73   74 1
 153   73  209 1
 154   73  210 1
 155   74   75 1
 156   74  211 1
 157   75   76 1
 158   75   77 2
 159   76  212 1
 160   76  213 1
 161   77  214 1
 162   78  215 1
 163   79   81 1
 164   79  216 1
 165   81   82 1
 166   81   86 1
 167   81  217 1
 168   82   83 1
 169   82  218 1
 170   82  219 1
 171   83   88 1
 172   83  220 1
 173   84   85 1
 174   84  221 1
 175   84  222 1
 176   84  223 1
 177   85   86 1
 178   85   87 1
 179   85  224 1
 180   86  225 1
 181   86  226 1
 182   87  227 1
 183   87  228 1
 184   87  229 1
 185   88   89 1
 186   88   93 1
 187   88  230 1
 188   89   90 1
 189   89  231 1
 190   89  232 1
 191   90   91 1
 192   90   95 2
 193   91   97 2
 194   92   93 am
 195   92  233 1
 196   92  234 1
 197   93   94 2
 198   95   96 1
 199   95  235 1
 200   96   97 1
 201   96  236 1
 202   97  237 1
 203   98   99 am
 204   98  238 1
 205   99  100 2
 206   99  101 1
 207  101  102 1
 208  101  103 1
 209  101  239 1
 210  102  104 1
 211  102  240 1
 212  102  241 1
 213  103  108 am
 214  103  242 1
 215  104  105 1
 216  104  243 1
 217  104  244 1
 218  105  106 1
 219  105  245 1
 220  105  246 1
 221  106  107 1
 222  106  247 1
 223  106  248 1
 224  107  249 1
 225  107  250 1
 226  108  109 2
 227  108  110 1
 228  110  111 1
 229  110  112 1
 230  110  251 1
 231  111  117 1
 232  111  252 1
 233  111  253 1
 234  112  113 1
 235  112  114 am
 236  114  115 2
 237  114  116 1
 238  116  121 1
 239  116  254 1
 240  116  255 1
 241  117  118 1
 242  117  256 1
 243  117  257 1
 244  118  119 1
 245  118  258 1
 246  118  259 1
 247  119  120 1
 248  119  260 1
 249  119  261 1
 250  120  262 1
 251  120  263 1
 252  121  122 1
 253  121  264 1
 254  121  265 1
 255  122  123 1
 256  122  266 1
 257  122  267 1
 258  123  124 1
 259  123  268 1
 260  123  269 1
 261  124  125 1
 262  124  270 1
 263  124  271 1
 264  125  126 1
 265  125  272 1
 266  125  273 1
 267  126  127 1
 268  126  274 1
 269  126  275 1
 270  127  128 1
 271  127  276 1
 272  127  277 1
 273  128  129 1
 274  128  278 1
 275  128  279 1
 276  129  130 1
 277  129  280 1
 278  129  281 1
 279  130  131 1
 280  130  282 1
 281  130  283 1
 282  131  132 1
 283  131  284 1
 284  131  285 1
 285  132  133 1
 286  132  286 1
 287  132  287 1
 288  133  134 1
 289  133  288 1
 290  133  289 1
 291  134  290 1
 292  134  291 1
 293  134  292 1

#	End of record

