#	Name: ASD03331818
#	Creating user name:	WinNT
#	Creation time:	15. 06. 2019 20:39

#	Modifying user name:	WinNT
#	Modification time:	15. 06. 2019 20:39

#	Program:	/corina/corina34_cracker 3.40 0067  02.08.2006

@<TRIPOS>MOLECULE
ASD03331818
  59   61    0    0    0
SMALL
NO_CHARGES


@<TRIPOS>ATOM
   1 C1            -0.0163     1.3543     0.0095 C.2     
   2 N2             0.0021    -0.0041     0.0020 N.pl3   
   3 C3            -1.2888    -0.4319     0.0173 C.2     
   4 N4            -2.0770     0.6212     0.0308 N.2     
   5 C5            -1.3172     1.7395     0.0297 C.2     
   6 C6             1.2260     2.2073     0.0022 C.3     
   7 N7             2.3697     1.3496     0.3617 N.3     
   8 C8             2.3872     0.1224    -0.4469 C.3     
   9 C9             1.2348    -0.7964    -0.0213 C.3     
  10 C10            3.6370     2.0817     0.2351 C.3     
  11 C11           -1.8129     3.1274     0.0420 C.2     
  12 O12           -1.0256     4.0544     0.0401 O.2     
  13 N13           -3.1387     3.3694     0.0555 N.am    
  14 C14           -3.6314     4.7490     0.0677 C.3     
  15 C15           -3.6709     5.2558     1.4864 C.2     
  16 C16           -5.0396     4.7929    -0.5289 C.3     
  17 C17           -4.9804     4.3974    -2.0057 C.3     
  18 O18           -3.3218     4.5355     2.3975 O.2     
  19 N19           -4.0941     6.5094     1.7426 N.am    
  20 C20           -4.1324     7.0021     3.1218 C.3     
  21 C21           -1.7308    -1.8400     0.0177 C.2     
  22 O22           -0.7885    -2.8125     0.0016 O.3     
  23 C23           -6.4003     4.3201    -2.5703 C.3     
  24 C24           -4.1790     5.4440    -2.7823 C.3     
  25 C25           -1.1950    -4.1345     0.3659 C.3     
  26 C26           -2.4810    -4.4722    -0.4005 C.3     
  27 C27           -3.5751    -3.4961     0.0450 C.3     
  28 C28           -3.0301    -2.0938     0.0391 C.2     
  29 H29            1.3787     2.6274    -0.9919 H       
  30 H30            1.1251     3.0114     0.7311 H       
  31 H31            2.2749     0.3806    -1.4999 H       
  32 H32            3.3357    -0.3943    -0.3006 H       
  33 H33            1.4326    -1.1981     0.9725 H       
  34 H34            1.1332    -1.6137    -0.7353 H       
  35 H35            3.6255     2.9456     0.8996 H       
  36 H36            4.4642     1.4256     0.5062 H       
  37 H37            3.7616     2.4170    -0.7946 H       
  38 H38           -3.7667     2.6301     0.0570 H       
  39 H39           -2.9662     5.3776    -0.5243 H       
  40 H40           -5.6837     4.0966     0.0082 H       
  41 H41           -5.4410     5.8023    -0.4390 H       
  42 H42           -4.4976     3.4249    -2.1023 H       
  43 H43           -4.3733     7.0855     1.0139 H       
  44 H44           -4.4990     8.0285     3.1309 H       
  45 H45           -4.7976     6.3735     3.7138 H       
  46 H46           -3.1292     6.9708     3.5468 H       
  47 H47           -6.8831     5.2926    -2.4737 H       
  48 H48           -6.3582     4.0383    -3.6224 H       
  49 H49           -6.9713     3.5745    -2.0170 H       
  50 H50           -3.1674     5.4990    -2.3801 H       
  51 H51           -4.1368     5.1622    -3.8344 H       
  52 H52           -4.6618     6.4165    -2.6857 H       
  53 H53           -0.4123    -4.8455     0.1014 H       
  54 H54           -1.3843    -4.1782     1.4385 H       
  55 H55           -2.3089    -4.3673    -1.4717 H       
  56 H56           -2.7859    -5.4940    -0.1748 H       
  57 H57           -4.4216    -3.5624    -0.6385 H       
  58 H58           -3.9013    -3.7514     1.0533 H       
  59 H59           -3.7229    -1.2653     0.0456 H       
@<TRIPOS>BOND
   1    1    2 1
   2    1    6 1
   3    1    5 2
   4    2    3 1
   5    2    9 1
   6    3    4 2
   7    3   21 1
   8    4    5 1
   9    5   11 1
  10    6    7 1
  11    6   29 1
  12    6   30 1
  13    7    8 1
  14    7   10 1
  15    8    9 1
  16    8   31 1
  17    8   32 1
  18    9   33 1
  19    9   34 1
  20   10   35 1
  21   10   36 1
  22   10   37 1
  23   11   12 2
  24   11   13 am
  25   13   14 1
  26   13   38 1
  27   14   15 1
  28   14   16 1
  29   14   39 1
  30   15   18 2
  31   15   19 am
  32   16   17 1
  33   16   40 1
  34   16   41 1
  35   17   23 1
  36   17   24 1
  37   17   42 1
  38   19   20 1
  39   19   43 1
  40   20   44 1
  41   20   45 1
  42   20   46 1
  43   21   22 1
  44   21   28 2
  45   22   25 1
  46   23   47 1
  47   23   48 1
  48   23   49 1
  49   24   50 1
  50   24   51 1
  51   24   52 1
  52   25   26 1
  53   25   53 1
  54   25   54 1
  55   26   27 1
  56   26   55 1
  57   26   56 1
  58   27   28 1
  59   27   57 1
  60   27   58 1
  61   28   59 1

#	End of record

