#	Name: ASD01908078
#	Creating user name:	WinNT
#	Creation time:	15. 06. 2019 19:54

#	Modifying user name:	WinNT
#	Modification time:	15. 06. 2019 19:54

#	Program:	/corina/corina34_cracker 3.40 0067  02.08.2006

@<TRIPOS>MOLECULE
ASD01908078
  45   48    0    0    0
SMALL
NO_CHARGES


@<TRIPOS>ATOM
   1 S1            -0.0213     1.6965     0.0469 S.3     
   2 N2             0.0006    -0.0026     0.0368 N.2     
   3 C3             1.2643    -0.3420     0.0043 C.2     
   4 N4             2.1566     0.6302    -0.0118 N.2     
   5 C5             1.6930     1.8602     0.0063 C.2     
   6 N6             2.4254     3.0352    -0.0055 N.pl3   
   7 C7             1.7729     4.2611    -0.0980 C.ar    
   8 C8             2.5034     5.4404     0.0060 C.ar    
   9 C9             1.8422     6.6517    -0.0877 C.ar    
  10 C10            0.4674     6.6428    -0.2831 C.ar    
  11 C11           -0.1944     5.4349    -0.3774 C.ar    
  12 N12            0.4633     4.2944    -0.2896 N.ar    
  13 N13            2.9034    -3.5812    -0.0515 N.pl3   
  14 N14            1.5566    -3.9628    -0.0217 N.2     
  15 C15            0.8198    -2.8839     0.0013 C.2     
  16 C16            1.6784    -1.7673    -0.0132 C.2     
  17 C17            2.9601    -2.2344    -0.0459 C.2     
  18 C18           -0.6862    -2.8416     0.0366 C.3     
  19 C19            4.0528    -4.4892    -0.0779 C.3     
  20 C20            3.9677    -5.4413     1.0871 C.ar    
  21 C21            3.3055    -6.6468     0.9462 C.ar    
  22 C22            3.2260    -7.5214     2.0126 C.ar    
  23 C23            3.8115    -7.1892     3.2257 C.ar    
  24 C24            4.4754    -5.9790     3.3645 C.ar    
  25 C25            4.5569    -5.1104     2.2934 C.ar    
  26 O26            3.7344    -8.0476     4.2764 O.3     
  27 C27            4.3601    -7.6398     5.4947 C.3     
  28 H28            3.3933     3.0040     0.0507 H       
  29 H29            3.5722     5.4105     0.1583 H       
  30 H30            2.3830     7.5833    -0.0103 H       
  31 H31           -0.0787     7.5714    -0.3602 H       
  32 H32           -1.2636     5.4234    -0.5290 H       
  33 H33            3.8575    -1.6338    -0.0637 H       
  34 H34           -1.0253    -2.8365     1.0725 H       
  35 H35           -1.0362    -1.9392    -0.4647 H       
  36 H36           -1.0864    -3.7185    -0.4723 H       
  37 H37            4.0482    -5.0542    -1.0100 H       
  38 H38            4.9742    -3.9110    -0.0080 H       
  39 H39            2.8496    -6.9048     0.0018 H       
  40 H40            2.7083    -8.4628     1.9022 H       
  41 H41            4.9319    -5.7181     4.3079 H       
  42 H42            5.0777    -4.1702     2.3995 H       
  43 H43            4.2245    -8.4141     6.2498 H       
  44 H44            5.4249    -7.4836     5.3217 H       
  45 H45            3.9083    -6.7106     5.8419 H       
@<TRIPOS>BOND
   1    1    2 1
   2    1    5 1
   3    2    3 2
   4    3    4 1
   5    3   16 1
   6    4    5 2
   7    5    6 1
   8    6    7 1
   9    6   28 1
  10    7    8 ar
  11    7   12 ar
  12    8    9 ar
  13    8   29 1
  14    9   10 ar
  15    9   30 1
  16   10   11 ar
  17   10   31 1
  18   11   12 ar
  19   11   32 1
  20   13   14 1
  21   13   17 1
  22   13   19 1
  23   14   15 2
  24   15   16 1
  25   15   18 1
  26   16   17 2
  27   17   33 1
  28   18   34 1
  29   18   35 1
  30   18   36 1
  31   19   20 1
  32   19   37 1
  33   19   38 1
  34   20   21 ar
  35   20   25 ar
  36   21   22 ar
  37   21   39 1
  38   22   23 ar
  39   22   40 1
  40   23   24 ar
  41   23   26 1
  42   24   25 ar
  43   24   41 1
  44   25   42 1
  45   26   27 1
  46   27   43 1
  47   27   44 1
  48   27   45 1

#	End of record

