#	Name: ASD08178481
#	Creating user name:	WinNT
#	Creation time:	15. 06. 2019 21:19

#	Modifying user name:	WinNT
#	Modification time:	15. 06. 2019 21:19

#	Program:	/corina/corina34_cracker 3.40 0067  02.08.2006

@<TRIPOS>MOLECULE
ASD08178481
  70   73    0    0    0
SMALL
NO_CHARGES


@<TRIPOS>ATOM
   1 C1            -4.0297    -3.8116     2.1778 C.ar    
   2 C2            -4.1781    -2.5051     1.7536 C.ar    
   3 C3            -5.2437    -1.7479     2.2033 C.ar    
   4 C4            -6.1639    -2.2959     3.0782 C.ar    
   5 C5            -6.0200    -3.6016     3.5052 C.ar    
   6 C6            -4.9513    -4.3636     3.0553 C.ar    
   7 C7            -3.1772    -1.9048     0.8003 C.3     
   8 C8            -3.6241    -2.1506    -0.6178 C.2     
   9 N9            -2.8793    -1.7001    -1.6468 N.am    
  10 O10           -4.6540    -2.7538    -0.8331 O.2     
  11 C11           -3.2345    -2.0193    -2.9569 C.ar    
  12 C12           -2.5318    -1.4683    -4.0266 C.ar    
  13 N13           -4.2379    -2.8521    -3.1901 N.ar    
  14 N14           -4.5958    -3.1718    -4.3804 N.ar    
  15 C15           -3.9903    -2.6941    -5.4499 C.ar    
  16 C16           -2.9239    -1.8179    -5.3099 C.ar    
  17 C17           -4.4528    -3.1046    -6.8242 C.3     
  18 C18           -4.4424    -4.6308    -6.9311 C.3     
  19 C19           -4.9120    -5.0475    -8.3263 C.3     
  20 C20           -4.9016    -6.5738    -8.4332 C.3     
  21 C21           -5.3641    -6.9842    -9.8075 C.2     
  22 N22           -4.6104    -7.1621   -10.8457 N.2     
  23 N23           -5.1907    -7.5073   -11.9125 N.2     
  24 C24           -6.4809    -7.6528   -11.8772 C.2     
  25 S25           -7.0282    -7.3162   -10.2892 S.3     
  26 N26           -7.2842    -8.0257   -12.9495 N.am    
  27 C27           -6.7302    -8.2704   -14.1535 C.2     
  28 C28           -7.6007    -8.6745   -15.3154 C.3     
  29 O29           -5.5310    -8.1654   -14.3019 O.2     
  30 C30           -6.7426    -8.8871   -16.5359 C.ar    
  31 C31           -6.2115   -10.1358   -16.7983 C.ar    
  32 C32           -5.4242   -10.3308   -17.9179 C.ar    
  33 C33           -5.1686    -9.2771   -18.7751 C.ar    
  34 C34           -5.7006    -8.0282   -18.5131 C.ar    
  35 C35           -6.4912    -7.8343   -17.3962 C.ar    
  36 S36           -4.7462   -11.9225   -18.2518 S.o     
  37 O37           -4.7188   -12.5337   -16.9693 O.2     
  38 C38           -6.0277   -12.7069   -19.2682 C.3     
  39 O39           -4.8078    -5.6486     3.4737 O.3     
  40 C40           -5.7945    -6.1508     4.3772 C.3     
  41 F41           -7.0544    -6.0910     3.7721 F       
  42 F42           -5.4961    -7.4782     4.7028 F       
  43 F43           -5.7989    -5.3747     5.5412 F       
  44 H44           -3.1993    -4.4041     1.8230 H       
  45 H45           -5.3576    -0.7266     1.8711 H       
  46 H46           -6.9956    -1.7023     3.4281 H       
  47 H47           -6.7385    -4.0288     4.1890 H       
  48 H48           -3.1048    -0.8318     0.9776 H       
  49 H49           -2.2024    -2.3659     0.9591 H       
  50 H50           -2.0963    -1.1537    -1.4760 H       
  51 H51           -1.7078    -0.7900    -3.8614 H       
  52 H52           -2.4167    -1.4167    -6.1748 H       
  53 H53           -5.4645    -2.7354    -6.9924 H       
  54 H54           -3.7830    -2.6833    -7.5739 H       
  55 H55           -3.4307    -4.9999    -6.7629 H       
  56 H56           -5.1122    -5.0521    -6.1814 H       
  57 H57           -5.9237    -4.6784    -8.4945 H       
  58 H58           -4.2422    -4.6262    -9.0760 H       
  59 H59           -3.8899    -6.9429    -8.2650 H       
  60 H60           -5.5713    -6.9951    -7.6836 H       
  61 H61           -8.2433    -8.1097   -12.8309 H       
  62 H62           -8.1235    -9.5997   -15.0732 H       
  63 H63           -8.3281    -7.8877   -15.5153 H       
  64 H64           -6.4112   -10.9591   -16.1285 H       
  65 H65           -4.5530    -9.4293   -19.6494 H       
  66 H66           -5.5006    -7.2048   -19.1827 H       
  67 H67           -6.9068    -6.8587   -17.1915 H       
  68 H68           -6.1836   -12.1197   -20.1732 H       
  69 H69           -5.7109   -13.7142   -19.5387 H       
  70 H70           -6.9586   -12.7581   -18.7035 H       
@<TRIPOS>BOND
   1    1    2 ar
   2    1    6 ar
   3    1   44 1
   4    2    3 ar
   5    2    7 1
   6    3    4 ar
   7    3   45 1
   8    4    5 ar
   9    4   46 1
  10    5    6 ar
  11    5   47 1
  12    6   39 1
  13    7    8 1
  14    7   48 1
  15    7   49 1
  16    8    9 am
  17    8   10 2
  18    9   11 1
  19    9   50 1
  20   11   12 ar
  21   11   13 ar
  22   12   16 ar
  23   12   51 1
  24   13   14 ar
  25   14   15 ar
  26   15   16 ar
  27   15   17 1
  28   16   52 1
  29   17   18 1
  30   17   53 1
  31   17   54 1
  32   18   19 1
  33   18   55 1
  34   18   56 1
  35   19   20 1
  36   19   57 1
  37   19   58 1
  38   20   21 1
  39   20   59 1
  40   20   60 1
  41   21   22 2
  42   21   25 1
  43   22   23 1
  44   23   24 2
  45   24   25 1
  46   24   26 1
  47   26   27 am
  48   26   61 1
  49   27   28 1
  50   27   29 2
  51   28   30 1
  52   28   62 1
  53   28   63 1
  54   30   31 ar
  55   30   35 ar
  56   31   32 ar
  57   31   64 1
  58   32   33 ar
  59   32   36 1
  60   33   34 ar
  61   33   65 1
  62   34   35 ar
  63   34   66 1
  64   35   67 1
  65   36   37 2
  66   36   38 1
  67   38   68 1
  68   38   69 1
  69   38   70 1
  70   39   40 1
  71   40   41 1
  72   40   42 1
  73   40   43 1

#	End of record

