#	Name: ASD09116461
#	Creating user name:	WinNT
#	Creation time:	15. 06. 2019 21:21

#	Modifying user name:	WinNT
#	Modification time:	15. 06. 2019 21:21

#	Program:	/corina/corina34_cracker 3.40 0067  02.08.2006

@<TRIPOS>MOLECULE
ASD09116461
  68   74    0    0    0
SMALL
NO_CHARGES


@<TRIPOS>ATOM
   1 N1             0.0846     1.0786    -0.5900 N.2     
   2 N2             0.1538    -0.3099    -0.3927 N.pl3   
   3 C3             1.3038     1.5447    -0.4621 C.2     
   4 N4             2.1333     0.5289    -0.1960 N.2     
   5 C5             1.4544    -0.5974    -0.1508 C.2     
   6 N6             1.9768    -1.8521     0.0990 N.pl3   
   7 C7            -0.9084    -1.2148    -0.4371 C.ar    
   8 N8             1.6760     2.8836    -0.5838 N.pl3   
   9 C9             2.9929     3.2698    -0.3188 C.ar    
  10 C10            3.5603     4.3542    -0.9789 C.ar    
  11 C11            3.7592     2.5812     0.6138 C.ar    
  12 N12            4.9981     2.9452     0.8582 N.ar    
  13 C13            5.5760     3.9685     0.2413 C.ar    
  14 C14            4.8738     4.7047    -0.6863 C.ar    
  15 N15           -0.6823    -2.4878    -0.7253 N.ar    
  16 N16           -1.6254    -3.3591    -0.7884 N.ar    
  17 C17           -2.8885    -3.0314    -0.5682 C.ar    
  18 C18           -3.2198    -1.7146    -0.2361 C.ar    
  19 C19           -2.2090    -0.7789    -0.1719 C.ar    
  20 C20           -3.9833    -4.0214    -0.6933 C.ar    
  21 C21           -5.1059    -3.6931    -1.4549 C.ar    
  22 C22           -5.1505    -2.3713    -2.1715 C.3     
  23 C23           -5.4622    -1.2273    -1.2105 C.3     
  24 C24           -4.6455    -1.3605     0.0721 C.3     
  25 C25           -3.9073    -5.2589    -0.0638 C.ar    
  26 C26           -4.9554    -6.1512    -0.1812 C.ar    
  27 C27           -6.0751    -5.8138    -0.9197 C.ar    
  28 C28           -6.1509    -4.5863    -1.5549 C.ar    
  29 C29            7.0083     4.2764     0.5969 C.3     
  30 C30            7.3770     5.6929     0.1618 C.3     
  31 C31            6.9910     5.8641    -1.3121 C.3     
  32 C32            5.4649     5.8863    -1.4072 C.3     
  33 N33            7.5357     7.1293    -1.8226 N.3     
  34 C34            9.0100     7.1109    -1.8158 C.3     
  35 C35            9.4774     7.3938    -3.2590 C.3     
  36 C36            8.2569     8.1177    -3.8861 C.3     
  37 C37            7.0744     7.3858    -3.2036 C.3     
  38 H38            2.9273    -1.9583     0.2611 H       
  39 H39            1.3931    -2.6267     0.1122 H       
  40 H40            1.0209     3.5466    -0.8523 H       
  41 H41            2.9911     4.9140    -1.7062 H       
  42 H42            3.3333     1.7409     1.1419 H       
  43 H43           -2.4161     0.2539     0.0665 H       
  44 H44           -4.1847    -2.1883    -2.6425 H       
  45 H45           -5.9203    -2.4094    -2.9422 H       
  46 H46           -5.2224    -0.2791    -1.6917 H       
  47 H47           -6.5237    -1.2452    -0.9635 H       
  48 H48           -5.0820    -2.1410     0.6955 H       
  49 H49           -4.6710    -0.4147     0.6132 H       
  50 H50           -3.0332    -5.5213     0.5137 H       
  51 H51           -4.9002    -7.1143     0.3044 H       
  52 H52           -6.8949    -6.5121    -1.0012 H       
  53 H53           -7.0287    -4.3286    -2.1290 H       
  54 H54            7.1382     4.1863     1.6753 H       
  55 H55            7.6640     3.5643     0.0958 H       
  56 H56            6.8329     6.4161     0.7693 H       
  57 H57            8.4499     5.8447     0.2795 H       
  58 H58            7.3868     5.0319    -1.8943 H       
  59 H59            5.1695     5.8500    -2.4558 H       
  60 H60            5.0902     6.8072    -0.9604 H       
  61 H61            9.3874     7.8833    -1.1457 H       
  62 H62            9.3671     6.1321    -1.4955 H       
  63 H63           10.3529     8.0430    -3.2603 H       
  64 H64            9.6858     6.4628    -3.7861 H       
  65 H65            8.2588     9.1777    -3.6322 H       
  66 H66            8.2320     7.9767    -4.9666 H       
  67 H67            6.8642     6.4461    -3.7142 H       
  68 H68            6.1886     8.0209    -3.1960 H       
@<TRIPOS>BOND
   1    1    2 1
   2    1    3 2
   3    2    7 1
   4    2    5 1
   5    3    4 1
   6    3    8 1
   7    4    5 2
   8    5    6 1
   9    6   38 1
  10    6   39 1
  11    7   15 ar
  12    7   19 ar
  13    8    9 1
  14    8   40 1
  15    9   10 ar
  16    9   11 ar
  17   10   14 ar
  18   10   41 1
  19   11   12 ar
  20   11   42 1
  21   12   13 ar
  22   13   14 ar
  23   13   29 1
  24   14   32 1
  25   15   16 ar
  26   16   17 ar
  27   17   18 ar
  28   17   20 1
  29   18   19 ar
  30   18   24 1
  31   19   43 1
  32   20   21 ar
  33   20   25 ar
  34   21   22 1
  35   21   28 ar
  36   22   23 1
  37   22   44 1
  38   22   45 1
  39   23   24 1
  40   23   46 1
  41   23   47 1
  42   24   48 1
  43   24   49 1
  44   25   26 ar
  45   25   50 1
  46   26   27 ar
  47   26   51 1
  48   27   28 ar
  49   27   52 1
  50   28   53 1
  51   29   30 1
  52   29   54 1
  53   29   55 1
  54   30   31 1
  55   30   56 1
  56   30   57 1
  57   31   32 1
  58   31   33 1
  59   31   58 1
  60   32   59 1
  61   32   60 1
  62   33   34 1
  63   33   37 1
  64   34   35 1
  65   34   61 1
  66   34   62 1
  67   35   36 1
  68   35   63 1
  69   35   64 1
  70   36   37 1
  71   36   65 1
  72   36   66 1
  73   37   67 1
  74   37   68 1

#	End of record

