#	Name: ASD05720197
#	Creating user name:	WinNT
#	Creation time:	15. 06. 2019 21:02

#	Modifying user name:	WinNT
#	Modification time:	15. 06. 2019 21:02

#	Program:	/corina/corina34_cracker 3.40 0067  02.08.2006

@<TRIPOS>MOLECULE
ASD05720197
  27   27    0    0    0
SMALL
NO_CHARGES


@<TRIPOS>ATOM
   1 C1            -0.0170     1.4011     0.0097 C.2     
   2 C2             0.0021    -0.0041     0.0020 C.2     
   3 C3             1.2004    -0.6554    -0.0129 C.2     
   4 C4             2.3866     0.0918    -0.0202 C.2     
   5 C5             2.3333     1.4442    -0.0124 C.2     
   6 N6             1.1396     2.0908     0.0024 N.am    
   7 O7            -1.0824     1.9967     0.0180 O.2     
   8 C8             1.1094     3.5555     0.0100 C.3     
   9 C9             1.1123     4.0581     1.4551 C.3     
  10 C10           -1.2879    -0.7831     0.0106 C.3     
  11 C11           -2.0266    -0.5319     1.3267 C.3     
  12 O12           -3.1906    -1.3589     1.3850 O.3     
  13 N13           -2.1289    -0.3501    -1.1133 N.3     
  14 H14            1.2351    -1.7349    -0.0187 H       
  15 H15            3.3422    -0.4113    -0.0316 H       
  16 H16            3.2500     2.0151    -0.0181 H       
  17 H17            1.9868     3.9397    -0.5101 H       
  18 H18            0.2073     3.9029    -0.4936 H       
  19 H19            1.0899     5.1479     1.4608 H       
  20 H20            0.2349     3.6739     1.9753 H       
  21 H21            2.0144     3.7107     1.9588 H       
  22 H22           -1.0707    -1.8468    -0.0868 H       
  23 H23           -1.3696    -0.7698     2.1633 H       
  24 H24           -2.3221     0.5158     1.3833 H       
  25 H25           -3.7089    -1.2519     2.1943 H       
  26 H26           -2.3444     0.6333    -1.0458 H       
  27 H27           -1.6906    -0.5645    -1.9965 H       
@<TRIPOS>BOND
   1    1    2 1
   2    1    6 am
   3    1    7 2
   4    2    3 2
   5    2   10 1
   6    3    4 1
   7    3   14 1
   8    4    5 2
   9    4   15 1
  10    5    6 1
  11    5   16 1
  12    6    8 1
  13    8    9 1
  14    8   17 1
  15    8   18 1
  16    9   19 1
  17    9   20 1
  18    9   21 1
  19   10   11 1
  20   10   13 1
  21   10   22 1
  22   11   12 1
  23   11   23 1
  24   11   24 1
  25   12   25 1
  26   13   26 1
  27   13   27 1

#	End of record

