#	Name: ASD08150930
#	Creating user name:	WinNT
#	Creation time:	15. 06. 2019 21:16

#	Modifying user name:	WinNT
#	Modification time:	15. 06. 2019 21:16

#	Program:	/corina/corina34_cracker 3.40 0067  02.08.2006

@<TRIPOS>MOLECULE
ASD08150930
  48   52    0    0    0
SMALL
NO_CHARGES


@<TRIPOS>ATOM
   1 N1            -0.2543     1.4023     0.1180 N.2     
   2 C2            -0.6527     0.2747     0.6314 C.2     
   3 N3            -0.3202     0.2210     1.9523 N.pl3   
   4 C4             0.3226     1.3928     2.2626 C.ar    
   5 N5             0.8646     1.9027     3.3635 N.ar    
   6 C6             1.4274     3.0927     3.3451 C.ar    
   7 N7             1.4840     3.8332     2.2533 N.ar    
   8 C8             0.9688     3.4065     1.1048 C.ar    
   9 C9             0.3575     2.1418     1.0741 C.ar    
  10 N10            1.0326     4.1900    -0.0342 N.pl3   
  11 C11            1.6735     5.5064     0.0171 C.3     
  12 C12            2.1450     5.8990    -1.3845 C.3     
  13 N13            0.6265     9.7886     2.1245 N.ar    
  14 C14           -0.2295    10.6796     2.5625 C.ar    
  15 C15           -1.6054    10.4833     2.4652 C.ar    
  16 C16           -2.0923     9.3384     1.9017 C.ar    
  17 C17           -1.1695     8.3843     1.4327 C.ar    
  18 C18           -1.5976     7.1838     0.8414 C.ar    
  19 C19           -0.6791     6.2803     0.3968 C.ar    
  20 C20            0.6850     6.5272     0.5189 C.ar    
  21 C21            1.1433     7.6928     1.0931 C.ar    
  22 C22            0.2159     8.6482     1.5632 C.ar    
  23 N23            2.5138     7.9272     1.2096 N.3     
  24 C24            2.9045     9.1491     0.4827 C.3     
  25 C25            3.5932    10.0848     1.4984 C.3     
  26 C26            4.0614     9.1095     2.6104 C.3     
  27 C27            2.9072     8.0765     2.6269 C.3     
  28 F28            2.6830    11.0165     2.0087 F       
  29 Cl29          -3.2937     6.8517     0.6779 Cl      
  30 H30           -1.1707    -0.5036     0.0907 H       
  31 H31           -0.5045    -0.5111     2.5613 H       
  32 H32            1.8587     3.4778     4.2573 H       
  33 H33            0.6529     3.8676    -0.8665 H       
  34 H34            2.5295     5.4677     0.6909 H       
  35 H35            1.2891     5.9377    -2.0582 H       
  36 H36            2.6219     6.8784    -1.3463 H       
  37 H37            2.8600     5.1607    -1.7474 H       
  38 H38            0.1415    11.5895     3.0107 H       
  39 H39           -2.2863    11.2355     2.8353 H       
  40 H40           -3.1557     9.1696     1.8184 H       
  41 H41           -1.0148     5.3595    -0.0568 H       
  42 H42            3.5984     8.8975    -0.3194 H       
  43 H43            2.0196     9.6350     0.0717 H       
  44 H44            4.4462    10.5875     1.0424 H       
  45 H45            5.0057     8.6357     2.3420 H       
  46 H46            4.1417     9.6207     3.5697 H       
  47 H47            2.0702     8.4521     3.2155 H       
  48 H48            3.2560     7.1241     3.0262 H       
@<TRIPOS>BOND
   1    1    2 2
   2    1    9 1
   3    2    3 1
   4    2   30 1
   5    3    4 1
   6    3   31 1
   7    4    5 ar
   8    4    9 ar
   9    5    6 ar
  10    6    7 ar
  11    6   32 1
  12    7    8 ar
  13    8    9 ar
  14    8   10 1
  15   10   11 1
  16   10   33 1
  17   11   12 1
  18   11   20 1
  19   11   34 1
  20   12   35 1
  21   12   36 1
  22   12   37 1
  23   13   14 ar
  24   13   22 ar
  25   14   15 ar
  26   14   38 1
  27   15   16 ar
  28   15   39 1
  29   16   17 ar
  30   16   40 1
  31   17   18 ar
  32   17   22 ar
  33   18   19 ar
  34   18   29 1
  35   19   20 ar
  36   19   41 1
  37   20   21 ar
  38   21   22 ar
  39   21   23 1
  40   23   24 1
  41   23   27 1
  42   24   25 1
  43   24   42 1
  44   24   43 1
  45   25   26 1
  46   25   28 1
  47   25   44 1
  48   26   27 1
  49   26   45 1
  50   26   46 1
  51   27   47 1
  52   27   48 1

#	End of record

