#	Name: ASD07300238
#	Creating user name:	WinNT
#	Creation time:	15. 06. 2019 21:09

#	Modifying user name:	WinNT
#	Modification time:	15. 06. 2019 21:09

#	Program:	/corina/corina34_cracker 3.40 0067  02.08.2006

@<TRIPOS>MOLECULE
ASD07300238
  42   46    0    0    0
SMALL
NO_CHARGES


@<TRIPOS>ATOM
   1 C1            -0.4120     1.2425    -0.7393 C.ar    
   2 C2            -0.4840    -0.1241    -1.0267 C.ar    
   3 C3             0.6786    -0.8801    -1.0308 C.ar    
   4 C4             1.8773    -0.2420    -0.7464 C.ar    
   5 C5             1.8748     1.1125    -0.4711 C.ar    
   6 N6             0.7540     1.8080    -0.4743 N.ar    
   7 C7            -2.5369     0.7131    -1.1110 C.2     
   8 N8            -1.7122     1.7307    -0.8012 N.am    
   9 N9            -1.8239    -0.4198    -1.2591 N.am    
  10 O10           -3.7432     0.8038    -1.2416 O.2     
  11 C11           -2.3664    -1.7379    -1.5976 C.3     
  12 C12           -2.0996     3.0605    -0.5779 C.ar    
  13 C13           -3.4378     3.4186    -0.6712 C.ar    
  14 C14           -3.8192     4.7271    -0.4520 C.ar    
  15 C15           -2.8642     5.6854    -0.1376 C.ar    
  16 C16           -1.5257     5.3268    -0.0439 C.ar    
  17 C17           -1.1454     4.0171    -0.2582 C.ar    
  18 N18           -3.2507     7.0124     0.0843 N.pl3   
  19 O19           -5.0107     8.5222     0.7564 O.3     
  20 C20           -4.4950     7.2893     0.6062 C.2     
  21 N21           -5.3480     6.3910     1.0282 N.2     
  22 C22           -6.4660     7.0263     1.4743 C.ar    
  23 C23           -6.2447     8.4007     1.2974 C.ar    
  24 C24           -7.6713     6.5853     2.0217 C.ar    
  25 C25           -8.6337     7.5028     2.3838 C.ar    
  26 C26           -8.4110     8.8594     2.2073 C.ar    
  27 C27           -7.2228     9.3091     1.6667 C.ar    
  28 H28            0.6516    -1.9375    -1.2491 H       
  29 H29            2.8031    -0.7981    -0.7399 H       
  30 H30            2.8072     1.6103    -0.2492 H       
  31 H31           -2.6292    -2.2685    -0.6825 H       
  32 H32           -3.2560    -1.6169    -2.2157 H       
  33 H33           -1.6175    -2.3090    -2.1464 H       
  34 H34           -4.1804     2.6734    -0.9156 H       
  35 H35           -4.8601     5.0057    -0.5252 H       
  36 H36           -0.7828     6.0718     0.2001 H       
  37 H37           -0.1051     3.7374    -0.1814 H       
  38 H38           -2.6422     7.7369    -0.1294 H       
  39 H39           -7.8494     5.5292     2.1607 H       
  40 H40           -9.5672     7.1627     2.8073 H       
  41 H41           -9.1723     9.5696     2.4943 H       
  42 H42           -7.0563    10.3677     1.5321 H       
@<TRIPOS>BOND
   1    1    2 ar
   2    1    6 ar
   3    1    8 1
   4    2    3 ar
   5    2    9 1
   6    3    4 ar
   7    3   28 1
   8    4    5 ar
   9    4   29 1
  10    5    6 ar
  11    5   30 1
  12    7    8 am
  13    7    9 am
  14    7   10 2
  15    8   12 1
  16    9   11 1
  17   11   31 1
  18   11   32 1
  19   11   33 1
  20   12   13 ar
  21   12   17 ar
  22   13   14 ar
  23   13   34 1
  24   14   15 ar
  25   14   35 1
  26   15   16 ar
  27   15   18 1
  28   16   17 ar
  29   16   36 1
  30   17   37 1
  31   18   20 1
  32   18   38 1
  33   19   20 1
  34   19   23 1
  35   20   21 2
  36   21   22 1
  37   22   23 ar
  38   22   24 ar
  39   23   27 ar
  40   24   25 ar
  41   24   39 1
  42   25   26 ar
  43   25   40 1
  44   26   27 ar
  45   26   41 1
  46   27   42 1

#	End of record

