#	Name: ASD01917847
#	Creating user name:	WinNT
#	Creation time:	15. 06. 2019 20:10

#	Modifying user name:	WinNT
#	Modification time:	15. 06. 2019 20:10

#	Program:	/corina/corina34_cracker 3.40 0067  02.08.2006

@<TRIPOS>MOLECULE
ASD01917847
  49   53    0    0    0
SMALL
NO_CHARGES


@<TRIPOS>ATOM
   1 C1            -0.5158     1.7905     1.0300 C.2     
   2 C2            -0.3125     0.4602     1.0628 C.2     
   3 C3            -1.3849    -0.5507     0.6866 C.3     
   4 C4            -2.7565     0.1251     0.7536 C.3     
   5 N5            -2.6884     1.4220     0.0635 N.am    
   6 C6            -1.8126     2.4595     0.6358 C.3     
   7 C7            -3.4039     1.6536    -1.0549 C.2     
   8 O8            -4.0430     0.7538    -1.5650 O.2     
   9 S9             0.9647     2.5988     1.5254 S.3     
  10 C10            1.7285     1.0847     1.7386 C.2     
  11 N11            0.9118     0.1325     1.4530 N.2     
  12 C12            3.1521     0.8929     2.1944 C.3     
  13 O13            4.0163     0.8613     1.0568 O.3     
  14 C14            5.3438     0.6937     1.2950 C.ar    
  15 C15            6.2399     0.6537     0.2367 C.ar    
  16 C16            7.5888     0.4831     0.4814 C.ar    
  17 C17            8.0459     0.3523     1.7797 C.ar    
  18 C18            7.1548     0.3914     2.8362 C.ar    
  19 C19            5.8056     0.5680     2.5971 C.ar    
  20 C20           -3.4117     2.9991    -1.6604 C.ar    
  21 C21           -3.5645     4.1303    -0.8545 C.ar    
  22 C22           -3.5709     5.3850    -1.4240 C.ar    
  23 C23           -3.4284     5.5320    -2.7932 C.ar    
  24 C24           -3.2780     4.4194    -3.6066 C.ar    
  25 C25           -3.2600     3.1484    -3.0454 C.ar    
  26 O26           -3.1475     4.5880    -4.9512 O.3     
  27 C27           -2.6254     3.4790    -5.6909 C.3     
  28 C28           -3.3488     2.2078    -5.2261 C.3     
  29 O29           -3.1059     2.0454    -3.8227 O.3     
  30 H30           -1.2058    -0.9120    -0.3261 H       
  31 H31           -1.3568    -1.3881     1.3837 H       
  32 H32           -3.4988    -0.5079     0.2674 H       
  33 H33           -3.0354     0.2810     1.7958 H       
  34 H34           -2.2853     2.9004     1.5134 H       
  35 H35           -1.6181     3.2318    -0.1084 H       
  36 H36            3.4392     1.7181     2.8461 H       
  37 H37            3.2353    -0.0470     2.7402 H       
  38 H38            5.8833     0.7554    -0.7776 H       
  39 H39            8.2868     0.4515    -0.3421 H       
  40 H40            9.1008     0.2191     1.9690 H       
  41 H41            7.5142     0.2883     3.8494 H       
  42 H42            5.1099     0.5984     3.4226 H       
  43 H43           -3.6779     4.0212     0.2140 H       
  44 H44           -3.6881     6.2580    -0.7992 H       
  45 H45           -3.4349     6.5195    -3.2305 H       
  46 H46           -2.7998     3.6326    -6.7558 H       
  47 H47           -1.5560     3.3827    -5.5032 H       
  48 H48           -4.4188     2.3059    -5.4095 H       
  49 H49           -2.9601     1.3450    -5.7670 H       
@<TRIPOS>BOND
   1    1    2 2
   2    1    9 1
   3    1    6 1
   4    2    3 1
   5    2   11 1
   6    3    4 1
   7    3   30 1
   8    3   31 1
   9    4    5 1
  10    4   32 1
  11    4   33 1
  12    5    6 1
  13    5    7 am
  14    6   34 1
  15    6   35 1
  16    7    8 2
  17    7   20 1
  18    9   10 1
  19   10   11 2
  20   10   12 1
  21   12   13 1
  22   12   36 1
  23   12   37 1
  24   13   14 1
  25   14   15 ar
  26   14   19 ar
  27   15   16 ar
  28   15   38 1
  29   16   17 ar
  30   16   39 1
  31   17   18 ar
  32   17   40 1
  33   18   19 ar
  34   18   41 1
  35   19   42 1
  36   20   21 ar
  37   20   25 ar
  38   21   22 ar
  39   21   43 1
  40   22   23 ar
  41   22   44 1
  42   23   24 ar
  43   23   45 1
  44   24   25 ar
  45   24   26 1
  46   25   29 1
  47   26   27 1
  48   27   28 1
  49   27   46 1
  50   27   47 1
  51   28   29 1
  52   28   48 1
  53   28   49 1

#	End of record

