#	Name: ASD01883506
#	Creating user name:	WinNT
#	Creation time:	15. 06. 2019 19:46

#	Modifying user name:	WinNT
#	Modification time:	15. 06. 2019 19:46

#	Program:	/corina/corina34_cracker 3.40 0067  02.08.2006

@<TRIPOS>MOLECULE
ASD01883506
  42   44    0    0    0
SMALL
NO_CHARGES


@<TRIPOS>ATOM
   1 N1            -0.0162     1.3416     0.0094 N.am    
   2 C2             0.0021    -0.0041     0.0020 C.2     
   3 C3            -1.2158    -0.7275     0.0098 C.2     
   4 C4            -2.4268    -0.0106     0.0252 C.2     
   5 C5            -2.3787     1.3984     0.0323 C.2     
   6 C6            -1.1851     2.0331     0.0299 C.2     
   7 O7             1.0657    -0.5999    -0.0117 O.2     
   8 C8            -1.2148    -2.1594     0.0016 C.1     
   9 N9            -1.2140    -3.2954    -0.0049 N.1     
  10 C10            1.2514     2.0761     0.0013 C.3     
  11 C11            1.6789     2.3395    -1.4440 C.3     
  12 C12            3.0027     3.1065    -1.4525 C.3     
  13 C13            4.1051     2.2278    -0.8581 C.3     
  14 C14            3.3673     3.4787    -2.8911 C.3     
  15 C15           -3.7206    -0.7193     0.0332 C.ar    
  16 C16           -4.1772    -1.3366     1.1950 C.ar    
  17 C17           -5.3908    -2.0009     1.1993 C.ar    
  18 C18           -6.1675    -2.0640     0.0603 C.ar    
  19 C19           -5.7384    -1.4568    -1.1151 C.ar    
  20 C20           -4.5099    -0.7735    -1.1333 C.ar    
  21 N21           -6.2797    -1.3520    -2.3777 N.pl3   
  22 C22           -5.4402    -0.6376    -3.1845 C.2     
  23 C23           -4.3518    -0.2584    -2.4907 C.2     
  24 H24           -3.2947     1.9703     0.0441 H       
  25 H25           -1.1606     3.1128     0.0354 H       
  26 H26            1.1246     3.0255     0.5214 H       
  27 H27            2.0168     1.4854     0.5046 H       
  28 H28            1.8057     1.3901    -1.9642 H       
  29 H29            0.9135     2.9302    -1.9474 H       
  30 H30            2.9007     4.0139    -0.8572 H       
  31 H31            5.0483     2.7742    -0.8642 H       
  32 H32            3.8454     1.9626     0.1668 H       
  33 H33            4.2071     1.3204    -1.4534 H       
  34 H34            2.5819     4.1047    -3.3146 H       
  35 H35            4.3104     4.0251    -2.8972 H       
  36 H36            3.4692     2.5713    -3.4864 H       
  37 H37           -3.5820    -1.2970     2.0953 H       
  38 H38           -5.7346    -2.4767     2.1058 H       
  39 H39           -7.1120    -2.5872     0.0817 H       
  40 H40           -7.1298    -1.7295    -2.6528 H       
  41 H41           -5.6241    -0.4088    -4.2238 H       
  42 H42           -3.5189     0.3174    -2.8663 H       
@<TRIPOS>BOND
   1    1    2 am
   2    1   10 1
   3    1    6 1
   4    2    3 1
   5    2    7 2
   6    3    4 2
   7    3    8 1
   8    4    5 1
   9    4   15 1
  10    5    6 2
  11    5   24 1
  12    6   25 1
  13    8    9 3
  14   10   11 1
  15   10   26 1
  16   10   27 1
  17   11   12 1
  18   11   28 1
  19   11   29 1
  20   12   13 1
  21   12   14 1
  22   12   30 1
  23   13   31 1
  24   13   32 1
  25   13   33 1
  26   14   34 1
  27   14   35 1
  28   14   36 1
  29   15   16 ar
  30   15   20 ar
  31   16   17 ar
  32   16   37 1
  33   17   18 ar
  34   17   38 1
  35   18   19 ar
  36   18   39 1
  37   19   20 ar
  38   19   21 1
  39   20   23 1
  40   21   22 1
  41   21   40 1
  42   22   23 2
  43   22   41 1
  44   23   42 1

#	End of record

