#	Name: ASD08830119
#	Creating user name:	WinNT
#	Creation time:	15. 06. 2019 21:19

#	Modifying user name:	WinNT
#	Modification time:	15. 06. 2019 21:19

#	Program:	/corina/corina34_cracker 3.40 0067  02.08.2006

@<TRIPOS>MOLECULE
ASD08830119
  44   46    0    0    0
SMALL
NO_CHARGES


@<TRIPOS>ATOM
   1 C1             0.3519     1.3075     0.8190 C.ar    
   2 C2             0.5224    -0.0043     1.4642 C.2     
   3 C3            -0.6478    -0.9474     1.5747 C.3     
   4 C4            -0.2042    -2.2300     2.2813 C.3     
   5 N5            -1.3449    -3.1493     2.3889 N.3     
   6 O6             1.6044    -0.3261     1.9069 O.2     
   7 C7             1.4351     2.1845     0.7149 C.ar    
   8 C8             0.0239     3.7778    -0.3992 C.ar    
   9 C9            -1.0484     2.9094    -0.3021 C.ar    
  10 C10           -0.8935     1.6795     0.3020 C.ar    
  11 C11           -0.9097    -4.4777     2.8442 C.3     
  12 C12           -2.1336    -5.3842     2.9996 C.3     
  13 O13           -2.8387    -5.4420     1.7567 O.3     
  14 C14           -3.2778    -4.1656     1.2840 C.3     
  15 C15           -2.0654    -3.2467     1.1112 C.3     
  16 C16            1.2660     3.4164     0.1060 C.ar    
  17 O17            2.3162     4.2726     0.0029 O.3     
  18 C18            3.1147     4.1739    -1.0922 C.ar    
  19 C19            4.2596     4.9517    -1.1899 C.ar    
  20 C20            5.0698     4.8491    -2.3040 C.ar    
  21 C21            4.7407     3.9723    -3.3213 C.ar    
  22 C22            3.6004     3.1962    -3.2265 C.ar    
  23 C23            2.7895     3.2911    -2.1121 C.ar    
  24 H24           -1.4438    -0.4731     2.1487 H       
  25 H25           -1.0141    -1.1902     0.5772 H       
  26 H26            0.5919    -2.7043     1.7073 H       
  27 H27            0.1622    -1.9872     3.2787 H       
  28 H28            2.4005     1.9025     1.1084 H       
  29 H29           -0.1044     4.7395    -0.8736 H       
  30 H30           -2.0114     3.1973    -0.6972 H       
  31 H31           -1.7329     1.0040     0.3757 H       
  32 H32           -0.2284    -4.9087     2.1106 H       
  33 H33           -0.4012    -4.3851     3.8038 H       
  34 H34           -1.8109    -6.3864     3.2818 H       
  35 H35           -2.7893    -4.9814     3.7716 H       
  36 H36           -3.7825    -4.2863     0.3255 H       
  37 H37           -3.9667    -3.7273     2.0061 H       
  38 H38           -2.4006    -2.2555     0.8059 H       
  39 H39           -1.4026    -3.6581     0.3500 H       
  40 H40            4.5169     5.6369    -0.3958 H       
  41 H41            5.9609     5.4545    -2.3807 H       
  42 H42            5.3753     3.8939    -4.1917 H       
  43 H43            3.3456     2.5121    -4.0224 H       
  44 H44            1.8991     2.6843    -2.0383 H       
@<TRIPOS>BOND
   1    1    2 1
   2    1    7 ar
   3    1   10 ar
   4    2    3 1
   5    2    6 2
   6    3    4 1
   7    3   24 1
   8    3   25 1
   9    4    5 1
  10    4   26 1
  11    4   27 1
  12    5   11 1
  13    5   15 1
  14    7   16 ar
  15    7   28 1
  16    8    9 ar
  17    8   16 ar
  18    8   29 1
  19    9   10 ar
  20    9   30 1
  21   10   31 1
  22   11   12 1
  23   11   32 1
  24   11   33 1
  25   12   13 1
  26   12   34 1
  27   12   35 1
  28   13   14 1
  29   14   15 1
  30   14   36 1
  31   14   37 1
  32   15   38 1
  33   15   39 1
  34   16   17 1
  35   17   18 1
  36   18   19 ar
  37   18   23 ar
  38   19   20 ar
  39   19   40 1
  40   20   21 ar
  41   20   41 1
  42   21   22 ar
  43   21   42 1
  44   22   23 ar
  45   22   43 1
  46   23   44 1

#	End of record

