#	Name: ASD03930235
#	Creating user name:	WinNT
#	Creation time:	15. 06. 2019 20:47

#	Modifying user name:	WinNT
#	Modification time:	15. 06. 2019 20:47

#	Program:	/corina/corina34_cracker 3.40 0067  02.08.2006

@<TRIPOS>MOLECULE
ASD03930235
  52   53    0    0    0
SMALL
NO_CHARGES


@<TRIPOS>ATOM
   1 C1            -0.0169     1.3929     0.0097 C.ar    
   2 C2             0.0021    -0.0041     0.0020 C.ar    
   3 C3             1.2219    -0.6850    -0.0133 C.ar    
   4 C4             2.4037     0.0210    -0.0208 C.ar    
   5 C5             2.3836     1.4158    -0.0131 C.ar    
   6 C6             1.1661     2.0968     0.0022 C.ar    
   7 C7            -1.2667    -0.7605     0.0106 C.2     
   8 N8            -1.2479    -2.1082     0.0031 N.am    
   9 O9            -2.3279    -0.1675     0.0243 O.2     
  10 C10           -2.5061    -2.8584     0.0116 C.3     
  11 C11            3.6572     2.1752    -0.0207 C.ar    
  12 C12            3.6407     3.5691    -0.0130 C.ar    
  13 C13            4.8292     4.2705    -0.0202 C.ar    
  14 C14            6.0352     3.5930    -0.0350 C.ar    
  15 C15            6.0576     2.2098    -0.0431 C.ar    
  16 C16            4.8755     1.4978    -0.0297 C.ar    
  17 C17            7.3296     4.3647    -0.0427 C.3     
  18 C18            8.4776     3.4311    -0.4317 C.3     
  19 N19            9.7359     4.1813    -0.4392 N.am    
  20 S20           11.1814     3.3736    -0.4569 S.o2    
  21 F21            7.2440     5.4096    -0.9690 F       
  22 C22            7.5893     4.9391     1.3514 C.3     
  23 C23           11.1998     2.5133    -2.0538 C.3     
  24 C24           11.1041     3.5378    -3.1861 C.3     
  25 C25           12.5014     1.7211    -2.1914 C.3     
  26 O26           12.1592     4.4044    -0.4346 O.2     
  27 O27           11.0751     2.4415     0.6105 O.2     
  28 H28           -0.9593     1.9203     0.0170 H       
  29 H29            1.2377    -1.7649    -0.0189 H       
  30 H30            3.3467    -0.5053    -0.0323 H       
  31 H31            1.1517     3.1767     0.0081 H       
  32 H32           -0.4011    -2.5813    -0.0078 H       
  33 H33           -2.2920    -3.9271     0.0038 H       
  34 H34           -3.0725    -2.6079     0.9086 H       
  35 H35           -3.0902    -2.5983    -0.8712 H       
  36 H36            2.6998     4.0990    -0.0019 H       
  37 H37            4.8177     5.3504    -0.0147 H       
  38 H38            7.0021     1.6862    -0.0553 H       
  39 H39            4.8942     0.4180    -0.0361 H       
  40 H40            8.5443     2.6170     0.2900 H       
  41 H41            8.2926     3.0219    -1.4249 H       
  42 H42            9.7224     5.1512    -0.4339 H       
  43 H43            7.6560     4.1249     2.0731 H       
  44 H44            8.5255     5.4972     1.3458 H       
  45 H45            6.7714     5.6042     1.6285 H       
  46 H46           10.3516     1.8309    -2.1086 H       
  47 H47           10.1767     4.1021    -3.0881 H       
  48 H48           11.9523     4.2202    -3.1313 H       
  49 H49           11.1151     3.0208    -4.1457 H       
  50 H50           12.5696     0.9912    -1.3847 H       
  51 H51           12.5124     1.2041    -3.1510 H       
  52 H52           13.3496     2.4035    -2.1366 H       
@<TRIPOS>BOND
   1    1    2 ar
   2    1    6 ar
   3    1   28 1
   4    2    3 ar
   5    2    7 1
   6    3    4 ar
   7    3   29 1
   8    4    5 ar
   9    4   30 1
  10    5    6 ar
  11    5   11 1
  12    6   31 1
  13    7    8 am
  14    7    9 2
  15    8   10 1
  16    8   32 1
  17   10   33 1
  18   10   34 1
  19   10   35 1
  20   11   12 ar
  21   11   16 ar
  22   12   13 ar
  23   12   36 1
  24   13   14 ar
  25   13   37 1
  26   14   15 ar
  27   14   17 1
  28   15   16 ar
  29   15   38 1
  30   16   39 1
  31   17   18 1
  32   17   21 1
  33   17   22 1
  34   18   19 1
  35   18   40 1
  36   18   41 1
  37   19   20 am
  38   19   42 1
  39   20   23 1
  40   20   26 2
  41   20   27 2
  42   22   43 1
  43   22   44 1
  44   22   45 1
  45   23   24 1
  46   23   25 1
  47   23   46 1
  48   24   47 1
  49   24   48 1
  50   24   49 1
  51   25   50 1
  52   25   51 1
  53   25   52 1

#	End of record

