#	Name: ASD03091158
#	Creating user name:	WinNT
#	Creation time:	15. 06. 2019 20:30

#	Modifying user name:	WinNT
#	Modification time:	15. 06. 2019 20:30

#	Program:	/corina/corina34_cracker 3.40 0067  02.08.2006

@<TRIPOS>MOLECULE
ASD03091158
  36   38    0    0    0
SMALL
NO_CHARGES


@<TRIPOS>ATOM
   1 C1             0.2307     1.3699     0.0092 C.2     
   2 C2             0.0140    -0.0202     0.4503 C.ar    
   3 C3             1.0698    -0.7550     1.0106 C.ar    
   4 C4             0.8571    -2.0638     1.4234 C.ar    
   5 C5            -0.3883    -2.6408     1.2830 C.ar    
   6 C6            -1.4395    -1.9180     0.7283 C.ar    
   7 C7            -1.2452    -0.6107     0.3178 C.ar    
   8 O8             1.2967     1.9156     0.2205 O.2     
   9 N9            -0.7506     2.0338    -0.6331 N.am    
  10 C10           -2.5745    -3.9869     0.3603 C.3     
  11 N11           -2.6995    -2.5130     0.5902 N.3     
  12 C12           -3.4153    -1.9738    -0.5911 C.3     
  13 C13           -3.7319    -3.2185    -1.4768 C.3     
  14 N14           -2.3990    -3.6272    -2.0222 N.3     
  15 C15           -1.6093    -4.1012    -0.8601 C.3     
  16 C16           -3.9394    -4.2961    -0.3530 C.3     
  17 C17           -1.7332    -2.4984    -2.6860 C.3     
  18 N18            2.3265    -0.1743     1.1518 N.pl3   
  19 H19            1.6683    -2.6313     1.8549 H       
  20 H20           -0.5477    -3.6593     1.6051 H       
  21 H21           -2.0639    -0.0499    -0.1085 H       
  22 H22           -1.5995     1.5971    -0.8052 H       
  23 H23           -0.6081     2.9483    -0.9233 H       
  24 H24           -2.3213    -4.5892     1.2327 H       
  25 H25           -4.3388    -1.4837    -0.2830 H       
  26 H26           -2.7780    -1.2755    -1.1336 H       
  27 H27           -4.5331    -3.0995    -2.2062 H       
  28 H28           -0.7354    -3.4667    -0.7122 H       
  29 H29           -1.3052    -5.1376    -1.0065 H       
  30 H30           -3.9780    -5.3095    -0.7526 H       
  31 H31           -4.7979    -4.0739     0.2808 H       
  32 H32           -1.4235    -1.7685    -1.9381 H       
  33 H33           -0.8578    -2.8594    -3.2258 H       
  34 H34           -2.4245    -2.0299    -3.3865 H       
  35 H35            2.5066     0.6938     0.7582 H       
  36 H36            3.0224    -0.6375     1.6438 H       
@<TRIPOS>BOND
   1    1    2 1
   2    1    8 2
   3    1    9 am
   4    2    3 ar
   5    2    7 ar
   6    3    4 ar
   7    3   18 1
   8    4    5 ar
   9    4   19 1
  10    5    6 ar
  11    5   20 1
  12    6    7 ar
  13    6   11 1
  14    7   21 1
  15    9   22 1
  16    9   23 1
  17   10   11 1
  18   10   15 1
  19   10   16 1
  20   10   24 1
  21   11   12 1
  22   12   13 1
  23   12   25 1
  24   12   26 1
  25   13   14 1
  26   13   16 1
  27   13   27 1
  28   14   15 1
  29   14   17 1
  30   15   28 1
  31   15   29 1
  32   16   30 1
  33   16   31 1
  34   17   32 1
  35   17   33 1
  36   17   34 1
  37   18   35 1
  38   18   36 1

#	End of record

