#	Name: ASD01884768
#	Creating user name:	WinNT
#	Creation time:	15. 06. 2019 19:48

#	Modifying user name:	WinNT
#	Modification time:	15. 06. 2019 19:48

#	Program:	/corina/corina34_cracker 3.40 0067  02.08.2006

@<TRIPOS>MOLECULE
ASD01884768
  33   34    0    0    0
SMALL
NO_CHARGES


@<TRIPOS>ATOM
   1 C1            -0.0163     1.3517     0.0095 C.2     
   2 C2             0.0021    -0.0041     0.0020 C.2     
   3 C3             1.2976    -0.6858    -0.0141 C.ar    
   4 C4             2.4747     0.0860    -0.0212 C.ar    
   5 N5             2.3876     1.4618    -0.0126 N.am    
   6 C6             1.1932     2.0791     0.0018 C.2     
   7 C7             1.3804    -2.0822    -0.0219 C.ar    
   8 C8             2.6046    -2.6879    -0.0364 C.ar    
   9 C9             3.7678    -1.9300    -0.0436 C.ar    
  10 C10            3.7103    -0.5532    -0.0365 C.ar    
  11 C11           -1.2826    -0.7918     0.0106 C.3     
  12 O12            1.1540     3.2973     0.0091 O.2     
  13 C13            3.6142     2.2629    -0.0200 C.3     
  14 C14            4.0270     2.5499    -1.4650 C.3     
  15 C15            5.2349     3.4890    -1.4734 C.3     
  16 C16            4.3962     1.2379    -2.1602 C.3     
  17 H17           -0.9600     1.8770     0.0168 H       
  18 H18            0.4802    -2.6789    -0.0160 H       
  19 H19            2.6683    -3.7660    -0.0421 H       
  20 H20            4.7278    -2.4246    -0.0551 H       
  21 H21            4.6209     0.0275    -0.0422 H       
  22 H22           -2.1295    -0.1056     0.0227 H       
  23 H23           -1.3327    -1.4149    -0.8823 H       
  24 H24           -1.3150    -1.4245     0.8976 H       
  25 H25            3.4368     3.2037     0.5009 H       
  26 H26            4.4100     1.7135     0.4829 H       
  27 H27            3.1976     3.0201    -1.9933 H       
  28 H28            6.0644     3.0187    -0.9451 H       
  29 H29            5.5291     3.6935    -2.5028 H       
  30 H30            4.9719     4.4237    -0.9781 H       
  31 H31            4.6903     1.4424    -3.1896 H       
  32 H32            5.2256     0.7677    -1.6319 H       
  33 H33            3.5357     0.5689    -2.1543 H       
@<TRIPOS>BOND
   1    1    2 2
   2    1    6 1
   3    1   17 1
   4    2    3 1
   5    2   11 1
   6    3    4 ar
   7    3    7 ar
   8    4    5 1
   9    4   10 ar
  10    5    6 am
  11    5   13 1
  12    6   12 2
  13    7    8 ar
  14    7   18 1
  15    8    9 ar
  16    8   19 1
  17    9   10 ar
  18    9   20 1
  19   10   21 1
  20   11   22 1
  21   11   23 1
  22   11   24 1
  23   13   14 1
  24   13   25 1
  25   13   26 1
  26   14   16 1
  27   14   15 1
  28   14   27 1
  29   15   28 1
  30   15   29 1
  31   15   30 1
  32   16   31 1
  33   16   32 1
  34   16   33 1

#	End of record

