#	Name: ASD00190034
#	Creating user name:	WinNT
#	Creation time:	15. 06. 2019 18:33

#	Modifying user name:	WinNT
#	Modification time:	15. 06. 2019 18:33

#	Program:	/corina/corina34_cracker 3.40 0067  02.08.2006

@<TRIPOS>MOLECULE
ASD00190034
  51   55    0    0    0
SMALL
NO_CHARGES


@<TRIPOS>ATOM
   1 C1            -0.0141     1.3575     0.0065 C.ar    
   2 C2             0.0051    -0.0052    -0.0086 C.ar    
   3 C3             1.2070    -0.7047    -0.0377 C.ar    
   4 C4             2.3992    -0.0413    -0.0520 C.ar    
   5 C5             2.4138     1.3571    -0.0376 C.ar    
   6 C6             1.1926     2.0734    -0.0079 C.ar    
   7 C7             3.6590     2.1125    -0.0513 C.ar    
   8 C8             3.5790     3.5086    -0.0348 C.ar    
   9 C9             2.3057     4.1210    -0.0061 C.ar    
  10 N10            1.1984     3.4146     0.0070 N.ar    
  11 N11            4.9901     1.8002    -0.0781 N.pl3   
  12 C12            5.6816     2.9727    -0.0776 C.2     
  13 N13            4.8505     3.9750    -0.0521 N.2     
  14 N14            2.2232     5.5040     0.0108 N.pl3   
  15 C15            0.9769     6.1312    -0.0808 C.ar    
  16 C16            7.1836     3.0928    -0.1023 C.3     
  17 C17            0.7422     7.3157     0.6053 C.ar    
  18 C18           -0.4897     7.9339     0.5131 C.ar    
  19 C19           -1.4899     7.3743    -0.2615 C.ar    
  20 C20           -1.2592     6.1929    -0.9471 C.ar    
  21 C21           -0.0267     5.5736    -0.8627 C.ar    
  22 Cl22          -2.5168     5.4936    -1.9182 Cl      
  23 Cl23          -3.0371     8.1535    -0.3741 Cl      
  24 C24            7.6866     2.9962     1.2600 C.3     
  25 C25            9.2166     3.1759     1.3360 C.3     
  26 C26            9.8702     1.8760     0.9522 C.3     
  27 C27           10.2383     1.8200    -0.5428 C.3     
  28 C28            9.1396     2.4048    -1.4509 C.3     
  29 C29            7.7576     1.9942    -1.0201 C.3     
  30 H30           -0.9562     1.8853     0.0250 H       
  31 H31           -0.9273    -0.5503     0.0026 H       
  32 H32            1.1964    -1.7846    -0.0489 H       
  33 H33            3.3271    -0.5934    -0.0739 H       
  34 H34            5.3710     0.9083    -0.0942 H       
  35 H35            3.0300     6.0371     0.0862 H       
  36 H36            7.4527     4.0674    -0.5096 H       
  37 H37            1.5222     7.7530     1.2109 H       
  38 H38           -0.6722     8.8550     1.0466 H       
  39 H39            0.1533     4.6527    -1.3975 H       
  40 H40            7.2103     3.7656     1.8676 H       
  41 H41            7.4256     2.0181     1.6641 H       
  42 H42            9.5279     3.9600     0.6458 H       
  43 H43            9.5038     3.4440     2.3527 H       
  44 H44           10.7770     1.7490     1.5437 H       
  45 H45            9.1868     1.0575     1.1780 H       
  46 H46           11.1594     2.3815    -0.6993 H       
  47 H47           10.4105     0.7810    -0.8238 H       
  48 H48            9.2069     3.4926    -1.4300 H       
  49 H49            9.3070     2.0626    -2.4721 H       
  50 H50            7.8089     1.0516    -0.4751 H       
  51 H51            7.1199     1.8793    -1.8967 H       
@<TRIPOS>BOND
   1    1    2 ar
   2    1    6 ar
   3    1   30 1
   4    2    3 ar
   5    2   31 1
   6    3    4 ar
   7    3   32 1
   8    4    5 ar
   9    4   33 1
  10    5    6 ar
  11    5    7 ar
  12    6   10 ar
  13    7    8 ar
  14    7   11 1
  15    8    9 ar
  16    8   13 1
  17    9   10 ar
  18    9   14 1
  19   11   12 1
  20   11   34 1
  21   12   13 2
  22   12   16 1
  23   14   15 1
  24   14   35 1
  25   15   17 ar
  26   15   21 ar
  27   16   24 1
  28   16   29 1
  29   16   36 1
  30   17   18 ar
  31   17   37 1
  32   18   19 ar
  33   18   38 1
  34   19   20 ar
  35   19   23 1
  36   20   21 ar
  37   20   22 1
  38   21   39 1
  39   24   25 1
  40   24   40 1
  41   24   41 1
  42   25   26 1
  43   25   42 1
  44   25   43 1
  45   26   27 1
  46   26   44 1
  47   26   45 1
  48   27   28 1
  49   27   46 1
  50   27   47 1
  51   28   29 1
  52   28   48 1
  53   28   49 1
  54   29   50 1
  55   29   51 1

#	End of record

