#	Name: ASD04230036
#	Creating user name:	WinNT
#	Creation time:	15. 06. 2019 20:48

#	Modifying user name:	WinNT
#	Modification time:	15. 06. 2019 20:48

#	Program:	/corina/corina34_cracker 3.40 0067  02.08.2006

@<TRIPOS>MOLECULE
ASD04230036
  35   37    0    0    0
SMALL
NO_CHARGES


@<TRIPOS>ATOM
   1 N1             0.7957     1.9042    -1.7387 N.pl3   
   2 C2             1.6657    -1.4257    -0.4287 C.ar    
   3 C3             1.7845    -0.1815    -1.0427 C.ar    
   4 C4             0.6813     0.6548    -1.1246 C.ar    
   5 C5            -0.5383     0.2495    -0.5948 C.ar    
   6 C6            -0.6550    -0.9855     0.0138 C.ar    
   7 C7             0.4388    -1.8239     0.0993 C.ar    
   8 C8             2.8403    -2.3280    -0.3430 C.ar    
   9 C9             2.7208    -3.5733     0.2717 C.ar    
  10 C10            3.8141    -4.4101     0.3495 C.ar    
  11 C11            5.0333    -4.0130    -0.1834 C.ar    
  12 C12            5.1553    -2.7730    -0.7963 C.ar    
  13 C13            4.0639    -1.9344    -0.8821 C.ar    
  14 O14            6.1090    -4.8390    -0.1045 O.3     
  15 C15            6.9296    -4.7168     0.9716 C.ar    
  16 C16            6.6007    -3.8467     2.0012 C.ar    
  17 C17            7.4364    -3.7247     3.0943 C.ar    
  18 C18            8.5999    -4.4687     3.1630 C.ar    
  19 C19            8.9303    -5.3361     2.1381 C.ar    
  20 C20            8.0952    -5.4661     1.0455 C.ar    
  21 H21            1.6469     2.1870    -2.1081 H       
  22 H22            0.0230     2.4874    -1.7994 H       
  23 H23            2.7332     0.1316    -1.4530 H       
  24 H24           -1.3967     0.9017    -0.6587 H       
  25 H25           -1.6046    -1.2958     0.4242 H       
  26 H26            0.3437    -2.7883     0.5760 H       
  27 H27            1.7729    -3.8823     0.6870 H       
  28 H28            3.7221    -5.3750     0.8257 H       
  29 H29            6.1047    -2.4667    -1.2099 H       
  30 H30            4.1582    -0.9720    -1.3629 H       
  31 H31            5.6922    -3.2651     1.9479 H       
  32 H32            7.1811    -3.0474     3.8958 H       
  33 H33            9.2520    -4.3718     4.0184 H       
  34 H34            9.8400    -5.9155     2.1938 H       
  35 H35            8.3512    -6.1473     0.2475 H       
@<TRIPOS>BOND
   1    1    4 1
   2    1   21 1
   3    1   22 1
   4    2    3 ar
   5    2    7 ar
   6    2    8 1
   7    3    4 ar
   8    3   23 1
   9    4    5 ar
  10    5    6 ar
  11    5   24 1
  12    6    7 ar
  13    6   25 1
  14    7   26 1
  15    8    9 ar
  16    8   13 ar
  17    9   10 ar
  18    9   27 1
  19   10   11 ar
  20   10   28 1
  21   11   12 ar
  22   11   14 1
  23   12   13 ar
  24   12   29 1
  25   13   30 1
  26   14   15 1
  27   15   16 ar
  28   15   20 ar
  29   16   17 ar
  30   16   31 1
  31   17   18 ar
  32   17   32 1
  33   18   19 ar
  34   18   33 1
  35   19   20 ar
  36   19   34 1
  37   20   35 1

#	End of record

