#	Name: ASD00069473
#	Creating user name:	WinNT
#	Creation time:	15. 06. 2019 18:29

#	Modifying user name:	WinNT
#	Modification time:	15. 06. 2019 18:29

#	Program:	/corina/corina34_cracker 3.40 0067  02.08.2006

@<TRIPOS>MOLECULE
ASD00069473
  32   33    0    0    0
SMALL
NO_CHARGES


@<TRIPOS>ATOM
   1 C1            -0.0188     1.5381     0.0105 C.3     
   2 C2             0.0021    -0.0041     0.0020 C.3     
   3 C3            -0.6936    -0.5398    -1.2510 C.3     
   4 C4            -0.7050     2.0549     1.2766 C.3     
   5 O5             1.3719     1.9233    -0.0007 O.3     
   6 B6             2.0664     0.7922     0.5440 Du      
   7 O7             1.4028    -0.3513    -0.0132 O.3     
   8 C8            -0.7290     2.0684    -1.2366 C.3     
   9 C9            -0.6721    -0.5533     1.2609 C.3     
  10 C10            3.2856     0.8033     1.5332 C.ar    
  11 C11            3.8365    -0.4024     1.9602 C.ar    
  12 N12            3.7811     1.9578     1.9472 N.ar    
  13 C13            4.8082     2.0122     2.7810 C.ar    
  14 C14            5.4054     0.8393     3.2533 C.ar    
  15 C15            4.9136    -0.3847     2.8342 C.ar    
  16 C16            5.3125     3.2844     3.2028 C.1     
  17 N17            5.7126     4.2935     3.5374 N.1     
  18 H18           -0.1774    -0.1728    -2.1381 H       
  19 H19           -0.6703    -1.6295    -1.2417 H       
  20 H20           -1.7288    -0.1987    -1.2657 H       
  21 H21           -0.1623     1.7024     2.1537 H       
  22 H22           -0.7115     3.1449     1.2671 H       
  23 H23           -1.7300     1.6858     1.3108 H       
  24 H24           -1.7545     1.6996    -1.2553 H       
  25 H25           -0.7352     3.1582    -1.2154 H       
  26 H26           -0.2032     1.7254    -2.1277 H       
  27 H27           -1.7068    -0.2125     1.2970 H       
  28 H28           -0.6490    -1.6428     1.2395 H       
  29 H29           -0.1409    -0.1959     2.1429 H       
  30 H30            3.4293    -1.3412     1.6149 H       
  31 H31            6.2430     0.8880     3.9333 H       
  32 H32            5.3558    -1.3060     3.1837 H       
@<TRIPOS>BOND
   1    1    2 1
   2    1    5 1
   3    1    8 1
   4    1    4 1
   5    2    3 1
   6    2    9 1
   7    2    7 1
   8    3   18 1
   9    3   19 1
  10    3   20 1
  11    4   21 1
  12    4   22 1
  13    4   23 1
  14    5    6 1
  15    6    7 1
  16    6   10 1
  17    8   24 1
  18    8   25 1
  19    8   26 1
  20    9   27 1
  21    9   28 1
  22    9   29 1
  23   10   11 ar
  24   10   12 ar
  25   11   15 ar
  26   11   30 1
  27   12   13 ar
  28   13   14 ar
  29   13   16 1
  30   14   15 ar
  31   14   31 1
  32   15   32 1
  33   16   17 3

#	End of record

