#	Name: ASD01148569
#	Creating user name:	WinNT
#	Creation time:	15. 06. 2019 19:02

#	Modifying user name:	WinNT
#	Modification time:	15. 06. 2019 19:02

#	Program:	/corina/corina34_cracker 3.40 0067  02.08.2006

@<TRIPOS>MOLECULE
ASD01148569
  49   52    0    0    0
SMALL
NO_CHARGES


@<TRIPOS>ATOM
   1 C1            -0.0170     1.4364    -0.0252 C.ar    
   2 C2             0.0192     0.0536    -0.0359 C.ar    
   3 C3            -1.1605    -0.6687    -0.0202 C.ar    
   4 C4            -2.3757    -0.0077     0.0061 C.ar    
   5 C5            -2.4112     1.3740     0.0167 C.ar    
   6 C6            -1.2327     2.0962     0.0064 C.ar    
   7 C7            -3.7351     2.0932     0.0454 C.3     
   8 O8            -4.7244     1.3251     0.7601 O.3     
   9 C9            -3.6497     3.3763     0.9060 C.3     
  10 C10           -4.1226     2.8945     2.2643 C.2     
  11 N11           -4.7049     1.7514     2.1080 N.2     
  12 C12           -3.9476     3.6065     3.5418 C.ar    
  13 C13           -4.4544     3.0257     4.7827 C.ar    
  14 C14           -3.2950     4.8310     3.5753 C.ar    
  15 C15           -3.1166     5.5215     4.7610 C.ar    
  16 C16           -3.5826     5.0194     5.9681 C.ar    
  17 C17           -4.2721     3.7319     5.9953 C.ar    
  18 C18           -3.3779     5.7779     7.2157 C.2     
  19 O19           -3.8788     5.3886     8.2532 O.2     
  20 N20           -2.6354     6.9027     7.2064 N.am    
  21 C21           -4.7584     3.1867     7.1903 C.ar    
  22 C22           -5.1135     1.7898     4.7972 C.ar    
  23 C23           -4.2112     2.4148    -1.3727 C.3     
  24 F24           -4.3447     1.2273    -2.1002 F       
  25 F25           -5.4476     3.0666    -1.3130 F       
  26 F26           -3.2765     3.2444    -2.0015 F       
  27 Cl27          -1.1161    -2.4041    -0.0342 Cl      
  28 Cl28           1.4630     2.3437    -0.0442 Cl      
  29 C29           -2.4320     7.6564     8.4461 C.3     
  30 C30           -5.5702     1.2842     5.9780 C.ar    
  31 C31           -5.3957     1.9817     7.1703 C.ar    
  32 C32           -1.5593     8.8804     8.1614 C.3     
  33 F33           -2.1937     9.6963     7.2184 F       
  34 F34           -1.3650     9.6001     9.3452 F       
  35 F35           -0.3213     8.4641     7.6602 F       
  36 H36            0.9680    -0.4618    -0.0568 H       
  37 H37           -3.2968    -0.5716     0.0179 H       
  38 H38           -1.2610     3.1758     0.0147 H       
  39 H39           -2.6231     3.7385     0.9598 H       
  40 H40           -4.3136     4.1482     0.5166 H       
  41 H41           -2.9179     5.2539     2.6559 H       
  42 H42           -2.6034     6.4716     4.7469 H       
  43 H43           -2.2358     7.2133     6.3789 H       
  44 H44           -4.6290     3.7175     8.1219 H       
  45 H45           -5.2593     1.2410     3.8785 H       
  46 H46           -3.3966     7.9808     8.8366 H       
  47 H47           -1.9378     7.0207     9.1808 H       
  48 H48           -6.0783     0.3312     5.9881 H       
  49 H49           -5.7703     1.5622     8.0923 H       
@<TRIPOS>BOND
   1    1    2 ar
   2    1   28 1
   3    1    6 ar
   4    2    3 ar
   5    2   36 1
   6    3    4 ar
   7    3   27 1
   8    4    5 ar
   9    4   37 1
  10    5    6 ar
  11    5    7 1
  12    6   38 1
  13    7    8 1
  14    7    9 1
  15    7   23 1
  16    8   11 1
  17    9   10 1
  18    9   39 1
  19    9   40 1
  20   10   11 2
  21   10   12 1
  22   12   13 ar
  23   12   14 ar
  24   13   22 ar
  25   13   17 ar
  26   14   15 ar
  27   14   41 1
  28   15   16 ar
  29   15   42 1
  30   16   17 ar
  31   16   18 1
  32   17   21 ar
  33   18   19 2
  34   18   20 am
  35   20   29 1
  36   20   43 1
  37   21   31 ar
  38   21   44 1
  39   22   30 ar
  40   22   45 1
  41   23   24 1
  42   23   25 1
  43   23   26 1
  44   29   32 1
  45   29   46 1
  46   29   47 1
  47   30   31 ar
  48   30   48 1
  49   31   49 1
  50   32   33 1
  51   32   34 1
  52   32   35 1

#	End of record

